

        *** GPGPU-Sim Simulator Version 4.0.0  [build gpgpu-sim_git-commit-e5322e7bbe2c884b62aaecad0f854251c2187ba6_modified_5] ***


GPGPU-Sim PTX: simulation mode 0 (can change with PTX_SIM_MODE_FUNC environment variable:
               1=functional simulation only, 0=detailed performance simulator)
GPGPU-Sim PTX: overriding embedded ptx with ptx file (PTX_SIM_USE_PTX_FILE is set)
GPGPU-Sim: Configuration options:

-network_mode                           1 # Interconnection network mode
-inter_config_file   config_fermi_islip.icnt # Interconnection network config file
-gpgpu_ptx_use_cuobjdump                    1 # Use cuobjdump to extract ptx and sass from binaries
-gpgpu_experimental_lib_support                    0 # Try to extract code from cuda libraries [Broken because of unknown cudaGetExportTable]
-checkpoint_option                      0 #  checkpointing flag (0 = no checkpoint)
-checkpoint_kernel                      1 #  checkpointing during execution of which kernel (1- 1st kernel)
-checkpoint_CTA                         0 #  checkpointing after # of CTA (< less than total CTA)
-resume_option                          0 #  resume flag (0 = no resume)
-resume_kernel                          0 #  Resume from which kernel (1= 1st kernel)
-resume_CTA                             0 #  resume from which CTA 
-checkpoint_CTA_t                       0 #  resume from which CTA 
-checkpoint_insn_Y                      0 #  resume from which CTA 
-gpgpu_ptx_convert_to_ptxplus                    0 # Convert SASS (native ISA) to ptxplus and run ptxplus
-gpgpu_ptx_force_max_capability                   61 # Force maximum compute capability
-gpgpu_ptx_inst_debug_to_file                    0 # Dump executed instructions' debug information to file
-gpgpu_ptx_inst_debug_file       inst_debug.txt # Executed instructions' debug output file
-gpgpu_ptx_inst_debug_thread_uid                    1 # Thread UID for executed instructions' debug output
-gpgpu_simd_model                       1 # 1 = post-dominator
-gpgpu_shader_core_pipeline              1024:32 # shader core pipeline config, i.e., {<nthread>:<warpsize>}
-gpgpu_tex_cache:l1  N:16:128:24,L:R:m:N:L,T:128:4,128:2 # per-shader L1 texture cache  (READ-ONLY) config  {<nsets>:<bsize>:<assoc>,<rep>:<wr>:<alloc>:<wr_alloc>,<mshr>:<N>:<merge>,<mq>:<rf>}
-gpgpu_const_cache:l1 N:128:64:2,L:R:f:N:L,S:2:64,4 # per-shader L1 constant memory cache  (READ-ONLY) config  {<nsets>:<bsize>:<assoc>,<rep>:<wr>:<alloc>:<wr_alloc>,<mshr>:<N>:<merge>,<mq>} 
-gpgpu_cache:il1     N:8:128:4,L:R:f:N:L,S:2:48,4 # shader L1 instruction cache config  {<nsets>:<bsize>:<assoc>,<rep>:<wr>:<alloc>:<wr_alloc>,<mshr>:<N>:<merge>,<mq>} 
-gpgpu_cache:dl1     S:4:128:48,L:L:s:N:L,A:256:8,16:0,32 # per-shader L1 data cache config  {<nsets>:<bsize>:<assoc>,<rep>:<wr>:<alloc>:<wr_alloc>,<mshr>:<N>:<merge>,<mq> | none}
-l1_latency                            82 # L1 Hit Latency
-smem_latency                          24 # smem Latency
-gpgpu_cache:dl1PrefL1 S:4:128:48,L:L:s:N:L,A:256:8,16:0,32 # per-shader L1 data cache config  {<nsets>:<bsize>:<assoc>,<rep>:<wr>:<alloc>:<wr_alloc>,<mshr>:<N>:<merge>,<mq> | none}
-gpgpu_cache:dl1PrefShared S:4:128:48,L:L:s:N:L,A:256:8,16:0,32 # per-shader L1 data cache config  {<nsets>:<bsize>:<assoc>,<rep>:<wr>:<alloc>:<wr_alloc>,<mshr>:<N>:<merge>,<mq> | none}
-gmem_skip_L1D                          1 # global memory access skip L1D cache (implements -Xptxas -dlcm=cg, default=no skip)
-gpgpu_perfect_mem                      0 # enable perfect memory mode (no cache miss)
-n_regfile_gating_group                    4 # group of lanes that should be read/written together)
-gpgpu_clock_gated_reg_file                    0 # enable clock gated reg file for power calculations
-gpgpu_clock_gated_lanes                    0 # enable clock gated lanes for power calculations
-gpgpu_shader_registers                32768 # Number of registers per shader core. Limits number of concurrent CTAs. (default 8192)
-gpgpu_registers_per_block                 8192 # Maximum number of registers per CTA. (default 8192)
-gpgpu_ignore_resources_limitation                    1 # gpgpu_ignore_resources_limitation (default 0)
-gpgpu_shader_cta                      16 # Maximum number of concurrent CTAs in shader (default 8)
-gpgpu_num_cta_barriers                   16 # Maximum number of named barriers per CTA (default 16)
-gpgpu_n_clusters                      28 # number of processing clusters
-gpgpu_n_cores_per_cluster                    2 # number of simd cores per cluster
-gpgpu_n_cluster_ejection_buffer_size                   32 # number of packets in ejection buffer
-gpgpu_n_ldst_response_buffer_size                    2 # number of response packets in ld/st unit ejection buffer
-gpgpu_shmem_per_block                49152 # Size of shared memory per thread block or CTA (default 48kB)
-gpgpu_shmem_size                   16384 # Size of shared memory per shader core (default 16kB)
-adpative_volta_cache_config                    0 # adpative_volta_cache_config
-gpgpu_shmem_size                   49152 # Size of shared memory per shader core (default 16kB)
-gpgpu_shmem_size_PrefL1                49152 # Size of shared memory per shader core (default 16kB)
-gpgpu_shmem_size_PrefShared                49152 # Size of shared memory per shader core (default 16kB)
-gpgpu_shmem_num_banks                   32 # Number of banks in the shared memory in each shader core (default 16)
-gpgpu_shmem_limited_broadcast                    0 # Limit shared memory to do one broadcast per cycle (default on)
-gpgpu_shmem_warp_parts                    1 # Number of portions a warp is divided into for shared memory bank conflict check 
-mem_unit_ports                         1 # The number of memory transactions allowed per core cycle
-gpgpu_shmem_warp_parts                    1 # Number of portions a warp is divided into for shared memory bank conflict check 
-gpgpu_warpdistro_shader                   -1 # Specify which shader core to collect the warp size distribution from
-gpgpu_warp_issue_shader                    0 # Specify which shader core to collect the warp issue distribution from
-gpgpu_local_mem_map                    1 # Mapping from local memory space address to simulated GPU physical address space (default = enabled)
-gpgpu_num_reg_banks                   32 # Number of register banks (default = 8)
-gpgpu_reg_bank_use_warp_id                    0 # Use warp ID in mapping registers to banks (default = off)
-sub_core_model                         0 # Sub Core Volta/Pascal model (default = off)
-enable_specialized_operand_collector                    1 # enable_specialized_operand_collector
-gpgpu_operand_collector_num_units_sp                   12 # number of collector units (default = 4)
-gpgpu_operand_collector_num_units_dp                    6 # number of collector units (default = 0)
-gpgpu_operand_collector_num_units_sfu                    6 # number of collector units (default = 4)
-gpgpu_operand_collector_num_units_int                    0 # number of collector units (default = 0)
-gpgpu_operand_collector_num_units_tensor_core                    4 # number of collector units (default = 4)
-gpgpu_operand_collector_num_units_mem                    8 # number of collector units (default = 2)
-gpgpu_operand_collector_num_units_gen                    0 # number of collector units (default = 0)
-gpgpu_operand_collector_num_in_ports_sp                    2 # number of collector unit in ports (default = 1)
-gpgpu_operand_collector_num_in_ports_dp                    1 # number of collector unit in ports (default = 0)
-gpgpu_operand_collector_num_in_ports_sfu                    2 # number of collector unit in ports (default = 1)
-gpgpu_operand_collector_num_in_ports_int                    0 # number of collector unit in ports (default = 0)
-gpgpu_operand_collector_num_in_ports_tensor_core                    1 # number of collector unit in ports (default = 1)
-gpgpu_operand_collector_num_in_ports_mem                    1 # number of collector unit in ports (default = 1)
-gpgpu_operand_collector_num_in_ports_gen                    0 # number of collector unit in ports (default = 0)
-gpgpu_operand_collector_num_out_ports_sp                    2 # number of collector unit in ports (default = 1)
-gpgpu_operand_collector_num_out_ports_dp                    1 # number of collector unit in ports (default = 0)
-gpgpu_operand_collector_num_out_ports_sfu                    2 # number of collector unit in ports (default = 1)
-gpgpu_operand_collector_num_out_ports_int                    0 # number of collector unit in ports (default = 0)
-gpgpu_operand_collector_num_out_ports_tensor_core                    1 # number of collector unit in ports (default = 1)
-gpgpu_operand_collector_num_out_ports_mem                    1 # number of collector unit in ports (default = 1)
-gpgpu_operand_collector_num_out_ports_gen                    0 # number of collector unit in ports (default = 0)
-gpgpu_coalesce_arch                   61 # Coalescing arch (GT200 = 13, Fermi = 20)
-gpgpu_num_sched_per_core                    2 # Number of warp schedulers per core
-gpgpu_max_insn_issue_per_warp                    2 # Max number of instructions that can be issued per warp in one cycle by scheduler (either 1 or 2)
-gpgpu_dual_issue_diff_exec_units                    1 # should dual issue use two different execution unit resources (Default = 1)
-gpgpu_simt_core_sim_order                    1 # Select the simulation order of cores in a cluster (0=Fix, 1=Round-Robin)
-gpgpu_pipeline_widths 2,1,0,2,1,2,1,0,2,1,5 # Pipeline widths ID_OC_SP,ID_OC_DP,ID_OC_INT,ID_OC_SFU,ID_OC_MEM,OC_EX_SP,OC_EX_DP,OC_EX_INT,OC_EX_SFU,OC_EX_MEM,EX_WB,ID_OC_TENSOR_CORE,OC_EX_TENSOR_CORE
-gpgpu_tensor_core_avail                    0 # Tensor Core Available (default=0)
-gpgpu_num_sp_units                     2 # Number of SP units (default=1)
-gpgpu_num_dp_units                     1 # Number of DP units (default=0)
-gpgpu_num_int_units                    0 # Number of INT units (default=0)
-gpgpu_num_sfu_units                    2 # Number of SF units (default=1)
-gpgpu_num_tensor_core_units                    1 # Number of tensor_core units (default=1)
-gpgpu_num_mem_units                    1 # Number if ldst units (default=1) WARNING: not hooked up to anything
-gpgpu_scheduler                      gto # Scheduler configuration: < lrr | gto | two_level_active > If two_level_active:<num_active_warps>:<inner_prioritization>:<outer_prioritization>For complete list of prioritization values see shader.h enum scheduler_prioritization_typeDefault: gto
-gpgpu_concurrent_kernel_sm                    0 # Support concurrent kernels on a SM (default = disabled)
-perf_sim_memcpy                        1 # Fill the L2 cache on memcpy
-gpgpu_dram_scheduler                    1 # 0 = fifo, 1 = FR-FCFS (defaul)
-gpgpu_dram_partition_queues          32:32:32:32 # i2$:$2d:d2$:$2i
-l2_ideal                               0 # Use a ideal L2 cache that always hit
-gpgpu_cache:dl2     S:64:128:16,L:B:m:L:L,A:256:64,16:0,32 # unified banked L2 data cache config  {<nsets>:<bsize>:<assoc>,<rep>:<wr>:<alloc>:<wr_alloc>,<mshr>:<N>:<merge>,<mq>}
-gpgpu_cache:dl2_texture_only                    0 # L2 cache used for texture only
-gpgpu_n_mem                            1 # number of memory modules (e.g. memory controllers) in gpu
-gpgpu_n_sub_partition_per_mchannel                    1 # number of memory subpartition in each memory module
-gpgpu_n_mem_per_ctrlr                    1 # number of memory chips per memory controller
-gpgpu_memlatency_stat                   14 # track and display latency statistics 0x2 enables MC, 0x4 enables queue logs
-gpgpu_frfcfs_dram_sched_queue_size                   64 # 0 = unlimited (default); # entries per chip
-gpgpu_dram_return_queue_size                   64 # 0 = unlimited (default); # entries per chip
-gpgpu_dram_buswidth                    4 # default = 4 bytes (8 bytes per cycle at DDR)
-gpgpu_dram_burst_length                    8 # Burst length of each DRAM request (default = 4 data bus cycle)
-dram_data_command_freq_ratio                    4 # Frequency ratio between DRAM data bus and command bus (default = 2 times, i.e. DDR)
-gpgpu_dram_timing_opt nbk=1:CCD=2:RRD=8:RCD=16:RAS=37:RP=16:RC=52: CL=16:WL=6:CDLR=7:WR=16:nbkgrp=1:CCDL=4:RTPL=3 # DRAM timing parameters = {nbk:tCCD:tRRD:tRCD:tRAS:tRP:tRC:CL:WL:tCDLR:tWR:nbkgrp:tCCDL:tRTPL}
-rop_latency                          120 # ROP queue latency (default 85)
-dram_latency                         100 # DRAM latency (default 30)
-dual_bus_interface                     0 # dual_bus_interface (default = 0) 
-dram_bnk_indexing_policy                    0 # dram_bnk_indexing_policy (0 = normal indexing, 1 = Xoring with the higher bits) (Default = 0)
-dram_bnkgrp_indexing_policy                    1 # dram_bnkgrp_indexing_policy (0 = take higher bits, 1 = take lower bits) (Default = 0)
-Seperate_Write_Queue_Enable                    0 # Seperate_Write_Queue_Enable
-Write_Queue_Size                32:28:16 # Write_Queue_Size
-Elimnate_rw_turnaround                    0 # elimnate_rw_turnaround i.e set tWTR and tRTW = 0
-icnt_flit_size                        40 # icnt_flit_size
-gpgpu_mem_addr_mapping dramid@8;00000000.00000000.00000000.00000000.0000000R.RRRRRRRR.RRRRRCCC.CCCSSSSS # mapping memory address to dram model {dramid@<start bit>;<memory address map>}
-gpgpu_mem_addr_test                    0 # run sweep test to check address mapping for aliased address
-gpgpu_mem_address_mask                    1 # 0 = old addressing mask, 1 = new addressing mask, 2 = new add. mask + flipped bank sel and chip sel bits
-memory_partition_indexing                    0 # 0 = no indexing, 1 = bitwise xoring, 2 = IPoly, 3 = custom indexing
-gpuwattch_xml_file         gpuwattch.xml # GPUWattch XML file
-power_simulation_enabled                    0 # Turn on power simulator (1=On, 0=Off)
-power_per_cycle_dump                    0 # Dump detailed power output each cycle
-power_trace_enabled                    0 # produce a file for the power trace (1=On, 0=Off)
-power_trace_zlevel                     6 # Compression level of the power trace output log (0=no comp, 9=highest)
-steady_power_levels_enabled                    0 # produce a file for the steady power levels (1=On, 0=Off)
-steady_state_definition                  8:4 # allowed deviation:number of samples
-gpgpu_max_cycle                        0 # terminates gpu simulation early (0 = no limit)
-gpgpu_max_insn                         0 # terminates gpu simulation early (0 = no limit)
-gpgpu_max_cta                          0 # terminates gpu simulation early (0 = no limit)
-gpgpu_runtime_stat                   500 # display runtime statistics such as dram utilization {<freq>:<flag>}
-liveness_message_freq                    1 # Minimum number of seconds between simulation liveness messages (0 = always print)
-gpgpu_flush_l1_cache                    1 # Flush L1 cache at the end of each kernel call
-gpgpu_flush_l2_cache                    0 # Flush L2 cache at the end of each kernel call
-gpgpu_deadlock_detect                    1 # Stop the simulation at deadlock (1=on (default), 0=off)
-gpgpu_ptx_instruction_classification                    0 # if enabled will classify ptx instruction types per kernel (Max 255 kernels now)
-gpgpu_ptx_sim_mode                     0 # Select between Performance (default) or Functional simulation (1)
-gpgpu_clock_domains 1417.0:1417.0:1417.0:2500.0 # Clock Domain Frequencies in MhZ {<Core Clock>:<ICNT Clock>:<L2 Clock>:<DRAM Clock>}
-gpgpu_max_concurrent_kernel                    8 # maximum kernels that can run concurrently on GPU
-gpgpu_cflog_interval                    0 # Interval between each snapshot in control flow logger
-visualizer_enabled                     0 # Turn on visualizer output (1=On, 0=Off)
-visualizer_outputfile                 NULL # Specifies the output log file for visualizer
-visualizer_zlevel                      6 # Compression level of the visualizer output log (0=no comp, 9=highest)
-trace_enabled                          0 # Turn on traces
-trace_components                    none # comma seperated list of traces to enable. Complete list found in trace_streams.tup. Default none
-trace_sampling_core                    0 # The core which is printed using CORE_DPRINTF. Default 0
-trace_sampling_memory_partition                   -1 # The memory partition which is printed using MEMPART_DPRINTF. Default -1 (i.e. all)
-enable_ptx_file_line_stats                    1 # Turn on PTX source line statistic profiling. (1 = On)
-ptx_line_stats_filename gpgpu_inst_stats.txt # Output file for PTX source line statistics.
-gpgpu_kernel_launch_latency                    0 # Kernel launch latency in cycles. Default: 0
-gpgpu_cdp_enabled                      0 # Turn on CDP
-save_embedded_ptx                      0 # saves ptx files embedded in binary as <n>.ptx
-keep                                   0 # keep intermediate files created by GPGPU-Sim when interfacing with external programs
-gpgpu_ptx_save_converted_ptxplus                    0 # Saved converted ptxplus to a file
-gpgpu_occupancy_sm_number                   62 # The SM number to pass to ptxas when getting register usage for computing GPU occupancy. This parameter is required in the config.
-ptx_opcode_latency_int         4,13,4,5,145 # Opcode latencies for integers <ADD,MAX,MUL,MAD,DIV>Default 1,1,19,25,145
-ptx_opcode_latency_fp          4,13,4,5,39 # Opcode latencies for single precision floating points <ADD,MAX,MUL,MAD,DIV>Default 1,1,1,1,30
-ptx_opcode_latency_dp         8,19,8,8,330 # Opcode latencies for double precision floating points <ADD,MAX,MUL,MAD,DIV>Default 8,8,8,8,335
-ptx_opcode_latency_sfu                    8 # Opcode latencies for SFU instructionsDefault 8
-ptx_opcode_latency_tesnor                   64 # Opcode latencies for Tensor instructionsDefault 64
-ptx_opcode_initiation_int            1,1,1,1,4 # Opcode initiation intervals for integers <ADD,MAX,MUL,MAD,DIV>Default 1,1,4,4,32
-ptx_opcode_initiation_fp            1,2,1,1,4 # Opcode initiation intervals for single precision floating points <ADD,MAX,MUL,MAD,DIV>Default 1,1,1,1,5
-ptx_opcode_initiation_dp          8,8,8,8,130 # Opcode initiation intervals for double precision floating points <ADD,MAX,MUL,MAD,DIV>Default 8,8,8,8,130
-ptx_opcode_initiation_sfu                    4 # Opcode initiation intervals for sfu instructionsDefault 8
-ptx_opcode_initiation_tensor                   64 # Opcode initiation intervals for tensor instructionsDefault 64
-cdp_latency         7200,8000,100,12000,1600 # CDP API latency <cudaStreamCreateWithFlags, cudaGetParameterBufferV2_init_perWarp, cudaGetParameterBufferV2_perKernel, cudaLaunchDeviceV2_init_perWarp, cudaLaunchDevicV2_perKernel>Default 7200,8000,100,12000,1600
DRAM Timing Options:
nbk                                     1 # number of banks
CCD                                     2 # column to column delay
RRD                                     8 # minimal delay between activation of rows in different banks
RCD                                    16 # row to column delay
RAS                                    37 # time needed to activate row
RP                                     16 # time needed to precharge (deactivate) row
RC                                     52 # row cycle time
CDLR                                    7 # switching from write to read (changes tWTR)
WR                                     16 # last data-in to row precharge
CL                                     16 # CAS latency
WL                                      6 # Write latency
nbkgrp                                  1 # number of bank groups
CCDL                                    4 # column to column delay between accesses to different bank groups
RTPL                                    3 # read to precharge delay between accesses to different bank groups
Total number of memory sub partition = 1
addr_dec_mask[CHIP]  = 0000000000000000 	high:64 low:0
addr_dec_mask[BK]    = 0000000000000000 	high:64 low:0
addr_dec_mask[ROW]   = 0000000001fff800 	high:25 low:11
addr_dec_mask[COL]   = 00000000000007ff 	high:11 low:0
addr_dec_mask[BURST] = 000000000000001f 	high:5 low:0
sub_partition_id_mask = 0000000000000000
GPGPU-Sim uArch: clock freqs: 1417000000.000000:1417000000.000000:1417000000.000000:2500000000.000000
GPGPU-Sim uArch: clock periods: 0.00000000070571630205:0.00000000070571630205:0.00000000070571630205:0.00000000040000000000
*** Initializing Memory Statistics ***
GPGPU-Sim uArch: interconnect node map (shaderID+MemID to icntID)
GPGPU-Sim uArch: Memory nodes ID start from index: 28
GPGPU-Sim uArch:    0   1   2   3   4   5   6
GPGPU-Sim uArch:    7   8   9  10  11  12  13
GPGPU-Sim uArch:   14  15  16  17  18  19  20
GPGPU-Sim uArch:   21  22  23  24  25  26  27
GPGPU-Sim uArch:   28  29  30  31  32  33  34
GPGPU-Sim uArch:   35  36  37  38  39  40  41
GPGPU-Sim uArch:   42  43  44  45  46  47  48
GPGPU-Sim uArch:   49  50  51
GPGPU-Sim uArch: interconnect node reverse map (icntID to shaderID+MemID)
GPGPU-Sim uArch: Memory nodes start from ID: 28
GPGPU-Sim uArch:    0   1   2   3   4   5   6
GPGPU-Sim uArch:    7   8   9  10  11  12  13
GPGPU-Sim uArch:   14  15  16  17  18  19  20
GPGPU-Sim uArch:   21  22  23  24  25  26  27
GPGPU-Sim uArch:   28  29  30  31  32  33  34
GPGPU-Sim uArch:   35  36  37  38  39  40  41
GPGPU-Sim uArch:   42  43  44  45  46  47  48
GPGPU-Sim uArch:   49  50  51
39fb8df82ef5355a0da526629605c614  /1502434/test
Extracting PTX file and ptxas options    1: test.1.sm_20.ptx -arch=sm_20
GPGPU-Sim uArch: performance model initialization complete.
self exe links to: /1502434/test
self exe links to: /1502434/test
8.0
GPGPU-Sim PTX: __cudaRegisterFatBinary, fat_cubin_handle = 1, filename=default
self exe links to: /1502434/test
Running md5sum using "md5sum /1502434/test "
self exe links to: /1502434/test
Extracting specific PTX file named test.1.sm_20.ptx 
GPGPU-Sim PTX: __cudaRegisterFunction _Z5inputPiS_ : hostFun 0x0x400e50, fat_cubin_handle = 1
GPGPU-Sim PTX: Parsing test.1.sm_20.ptx
GPGPU-Sim PTX: instruction assembly for function '_Z5inputPiS_'...   done.
GPGPU-Sim PTX: finished parsing EMBEDDED .ptx file test.1.sm_20.ptx
GPGPU-Sim PTX: loading globals with explicit initializers... 
GPGPU-Sim PTX: finished loading globals (0 bytes total).
GPGPU-Sim PTX: loading constants with explicit initializers...  done.
GPGPU-Sim PTX: Loading PTXInfo from test.1.sm_20.ptx
GPGPU-Sim PTX: Kernel '_Z5inputPiS_' : regs=8, lmem=0, smem=0, cmem=48
2 2count : 67108864 dst_start_addr : 0xc4000000
,GPGPU-Sim PTX: Setting up arguments for 8 bytes starting at 0x7ffe0dc27408..
GPGPU-Sim PTX: Setting up arguments for 8 bytes starting at 0x7ffe0dc27400..

GPGPU-Sim PTX: cudaLaunch for 0x0x400e50 (mode=performance simulation) on stream 0
GPGPU-Sim PTX: finding reconvergence points for '_Z5inputPiS_'...
GPGPU-Sim PTX: Finding dominators for '_Z5inputPiS_'...
GPGPU-Sim PTX: Finding immediate dominators for '_Z5inputPiS_'...
GPGPU-Sim PTX: Finding postdominators for '_Z5inputPiS_'...
GPGPU-Sim PTX: Finding immediate postdominators for '_Z5inputPiS_'...
GPGPU-Sim PTX: pre-decoding instructions for '_Z5inputPiS_'...
GPGPU-Sim PTX: reconvergence points for _Z5inputPiS_...
GPGPU-Sim PTX: ... end of reconvergence points for _Z5inputPiS_
GPGPU-Sim PTX: ... done pre-decoding instructions for '_Z5inputPiS_'.
GPGPU-Sim PTX: pushing kernel '_Z5inputPiS_' to stream 0, gridDim= (9096,1,1) blockDim = (512,1,1) 
GPGPU-Sim uArch: Shader 0 bind to kernel 1 '_Z5inputPiS_'
GPGPU-Sim uArch: CTA/core = 2, limited by: threads
GPGPU-Sim uArch: Shader 2 bind to kernel 1 '_Z5inputPiS_'
GPGPU-Sim uArch: Shader 4 bind to kernel 1 '_Z5inputPiS_'
GPGPU-Sim uArch: Shader 6 bind to kernel 1 '_Z5inputPiS_'
GPGPU-Sim uArch: Shader 8 bind to kernel 1 '_Z5inputPiS_'
GPGPU-Sim uArch: Shader 10 bind to kernel 1 '_Z5inputPiS_'
GPGPU-Sim uArch: Shader 12 bind to kernel 1 '_Z5inputPiS_'
GPGPU-Sim uArch: Shader 14 bind to kernel 1 '_Z5inputPiS_'
GPGPU-Sim uArch: Shader 16 bind to kernel 1 '_Z5inputPiS_'
GPGPU-Sim uArch: Shader 18 bind to kernel 1 '_Z5inputPiS_'
GPGPU-Sim uArch: Shader 20 bind to kernel 1 '_Z5inputPiS_'
GPGPU-Sim uArch: Shader 22 bind to kernel 1 '_Z5inputPiS_'
GPGPU-Sim uArch: Shader 24 bind to kernel 1 '_Z5inputPiS_'
GPGPU-Sim uArch: Shader 26 bind to kernel 1 '_Z5inputPiS_'
GPGPU-Sim uArch: Shader 28 bind to kernel 1 '_Z5inputPiS_'
GPGPU-Sim uArch: Shader 30 bind to kernel 1 '_Z5inputPiS_'
GPGPU-Sim uArch: Shader 32 bind to kernel 1 '_Z5inputPiS_'
GPGPU-Sim uArch: Shader 34 bind to kernel 1 '_Z5inputPiS_'
GPGPU-Sim uArch: Shader 36 bind to kernel 1 '_Z5inputPiS_'
GPGPU-Sim uArch: Shader 38 bind to kernel 1 '_Z5inputPiS_'
GPGPU-Sim uArch: Shader 40 bind to kernel 1 '_Z5inputPiS_'
GPGPU-Sim uArch: Shader 42 bind to kernel 1 '_Z5inputPiS_'
GPGPU-Sim uArch: Shader 44 bind to kernel 1 '_Z5inputPiS_'
GPGPU-Sim uArch: Shader 46 bind to kernel 1 '_Z5inputPiS_'
GPGPU-Sim uArch: Shader 48 bind to kernel 1 '_Z5inputPiS_'
GPGPU-Sim uArch: Shader 50 bind to kernel 1 '_Z5inputPiS_'
GPGPU-Sim uArch: Shader 52 bind to kernel 1 '_Z5inputPiS_'
GPGPU-Sim uArch: Shader 54 bind to kernel 1 '_Z5inputPiS_'
GPGPU-Sim uArch: Shader 1 bind to kernel 1 '_Z5inputPiS_'
GPGPU-Sim uArch: Shader 3 bind to kernel 1 '_Z5inputPiS_'
GPGPU-Sim uArch: Shader 5 bind to kernel 1 '_Z5inputPiS_'
GPGPU-Sim uArch: Shader 7 bind to kernel 1 '_Z5inputPiS_'
GPGPU-Sim uArch: Shader 9 bind to kernel 1 '_Z5inputPiS_'
GPGPU-Sim uArch: Shader 11 bind to kernel 1 '_Z5inputPiS_'
GPGPU-Sim uArch: Shader 13 bind to kernel 1 '_Z5inputPiS_'
GPGPU-Sim uArch: Shader 15 bind to kernel 1 '_Z5inputPiS_'
GPGPU-Sim uArch: Shader 17 bind to kernel 1 '_Z5inputPiS_'
GPGPU-Sim uArch: Shader 19 bind to kernel 1 '_Z5inputPiS_'
GPGPU-Sim uArch: Shader 21 bind to kernel 1 '_Z5inputPiS_'
GPGPU-Sim uArch: Shader 23 bind to kernel 1 '_Z5inputPiS_'
GPGPU-Sim uArch: Shader 25 bind to kernel 1 '_Z5inputPiS_'
GPGPU-Sim uArch: Shader 27 bind to kernel 1 '_Z5inputPiS_'
GPGPU-Sim uArch: Shader 29 bind to kernel 1 '_Z5inputPiS_'
GPGPU-Sim uArch: Shader 31 bind to kernel 1 '_Z5inputPiS_'
GPGPU-Sim uArch: Shader 33 bind to kernel 1 '_Z5inputPiS_'
GPGPU-Sim uArch: Shader 35 bind to kernel 1 '_Z5inputPiS_'
GPGPU-Sim uArch: Shader 37 bind to kernel 1 '_Z5inputPiS_'
GPGPU-Sim uArch: Shader 39 bind to kernel 1 '_Z5inputPiS_'
GPGPU-Sim uArch: Shader 41 bind to kernel 1 '_Z5inputPiS_'
GPGPU-Sim uArch: Shader 43 bind to kernel 1 '_Z5inputPiS_'
GPGPU-Sim uArch: Shader 45 bind to kernel 1 '_Z5inputPiS_'
GPGPU-Sim uArch: Shader 47 bind to kernel 1 '_Z5inputPiS_'
GPGPU-Sim uArch: Shader 49 bind to kernel 1 '_Z5inputPiS_'
GPGPU-Sim uArch: Shader 51 bind to kernel 1 '_Z5inputPiS_'
GPGPU-Sim uArch: Shader 53 bind to kernel 1 '_Z5inputPiS_'
GPGPU-Sim uArch: Shader 55 bind to kernel 1 '_Z5inputPiS_'
WARNING: Possible network deadlock.
WARNING: Possible network deadlock.
WARNING: Possible network deadlock.
WARNING: Possible network deadlock.
WARNING: Possible network deadlock.
WARNING: Possible network deadlock.
WARNING: Possible network deadlock.
WARNING: Possible network deadlock.
WARNING: Possible network deadlock.
WARNING: Possible network deadlock.
WARNING: Possible network deadlock.
WARNING: Possible network deadlock.
WARNING: Possible network deadlock.
WARNING: Possible network deadlock.
WARNING: Possible network deadlock.
WARNING: Possible network deadlock.
WARNING: Possible network deadlock.
WARNING: Possible network deadlock.
WARNING: Possible network deadlock.
WARNING: Possible network deadlock.
WARNING: Possible network deadlock.
WARNING: Possible network deadlock.
WARNING: Possible network deadlock.
WARNING: Possible network deadlock.
WARNING: Possible network deadlock.
WARNING: Possible network deadlock.
WARNING: Possible network deadlock.
WARNING: Possible network deadlock.
WARNING: Possible network deadlock.
WARNING: Possible network deadlock.
WARNING: Possible network deadlock.
WARNING: Possible network deadlock.
WARNING: Possible network deadlock.
WARNING: Possible network deadlock.
WARNING: Possible network deadlock.
WARNING: Possible network deadlock.
WARNING: Possible network deadlock.
WARNING: Possible network deadlock.
WARNING: Possible network deadlock.
WARNING: Possible network deadlock.
WARNING: Possible network deadlock.
WARNING: Possible network deadlock.
WARNING: Possible network deadlock.
WARNING: Possible network deadlock.
WARNING: Possible network deadlock.
WARNING: Possible network deadlock.
WARNING: Possible network deadlock.
WARNING: Possible network deadlock.
WARNING: Possible network deadlock.
WARNING: Possible network deadlock.
WARNING: Possible network deadlock.
WARNING: Possible network deadlock.
WARNING: Possible network deadlock.
WARNING: Possible network deadlock.
WARNING: Possible network deadlock.
WARNING: Possible network deadlock.
WARNING: Possible network deadlock.
WARNING: Possible network deadlock.
WARNING: Possible network deadlock.
WARNING: Possible network deadlock.
WARNING: Possible network deadlock.
WARNING: Possible network deadlock.
WARNING: Possible network deadlock.
WARNING: Possible network deadlock.
WARNING: Possible network deadlock.
WARNING: Possible network deadlock.
WARNING: Possible network deadlock.
WARNING: Possible network deadlock.
WARNING: Possible network deadlock.
WARNING: Possible network deadlock.
WARNING: Possible network deadlock.
WARNING: Possible network deadlock.
WARNING: Possible network deadlock.
WARNING: Possible network deadlock.
WARNING: Possible network deadlock.
WARNING: Possible network deadlock.
WARNING: Possible network deadlock.
WARNING: Possible network deadlock.
WARNING: Possible network deadlock.
WARNING: Possible network deadlock.
WARNING: Possible network deadlock.
WARNING: Possible network deadlock.
WARNING: Possible network deadlock.
WARNING: Possible network deadlock.
WARNING: Possible network deadlock.
WARNING: Possible network deadlock.
WARNING: Possible network deadlock.
WARNING: Possible network deadlock.
WARNING: Possible network deadlock.
WARNING: Possible network deadlock.
WARNING: Possible network deadlock.
WARNING: Possible network deadlock.
WARNING: Possible network deadlock.
WARNING: Possible network deadlock.
WARNING: Possible network deadlock.
WARNING: Possible network deadlock.
WARNING: Possible network deadlock.
WARNING: Possible network deadlock.
WARNING: Possible network deadlock.
WARNING: Possible network deadlock.
WARNING: Possible network deadlock.
WARNING: Possible network deadlock.
WARNING: Possible network deadlock.
WARNING: Possible network deadlock.
WARNING: Possible network deadlock.
WARNING: Possible network deadlock.
WARNING: Possible network deadlock.
WARNING: Possible network deadlock.
WARNING: Possible network deadlock.
WARNING: Possible network deadlock.
WARNING: Possible network deadlock.
WARNING: Possible network deadlock.
WARNING: Possible network deadlock.
WARNING: Possible network deadlock.
WARNING: Possible network deadlock.
WARNING: Possible network deadlock.
WARNING: Possible network deadlock.
WARNING: Possible network deadlock.
WARNING: Possible network deadlock.
WARNING: Possible network deadlock.
WARNING: Possible network deadlock.
WARNING: Possible network deadlock.
WARNING: Possible network deadlock.
WARNING: Possible network deadlock.
WARNING: Possible network deadlock.
WARNING: Possible network deadlock.
WARNING: Possible network deadlock.
WARNING: Possible network deadlock.
WARNING: Possible network deadlock.
WARNING: Possible network deadlock.
WARNING: Possible network deadlock.
WARNING: Possible network deadlock.
WARNING: Possible network deadlock.
WARNING: Possible network deadlock.
WARNING: Possible network deadlock.
WARNING: Possible network deadlock.
WARNING: Possible network deadlock.
WARNING: Possible network deadlock.
WARNING: Possible network deadlock.
WARNING: Possible network deadlock.
WARNING: Possible network deadlock.
WARNING: Possible network deadlock.
WARNING: Possible network deadlock.
WARNING: Possible network deadlock.
WARNING: Possible network deadlock.
WARNING: Possible network deadlock.
WARNING: Possible network deadlock.
WARNING: Possible network deadlock.
WARNING: Possible network deadlock.
WARNING: Possible network deadlock.
WARNING: Possible network deadlock.
WARNING: Possible network deadlock.
WARNING: Possible network deadlock.
WARNING: Possible network deadlock.
WARNING: Possible network deadlock.
WARNING: Possible network deadlock.
WARNING: Possible network deadlock.
WARNING: Possible network deadlock.
WARNING: Possible network deadlock.
WARNING: Possible network deadlock.
WARNING: Possible network deadlock.
WARNING: Possible network deadlock.
WARNING: Possible network deadlock.
WARNING: Possible network deadlock.
WARNING: Possible network deadlock.
WARNING: Possible network deadlock.
WARNING: Possible network deadlock.
WARNING: Possible network deadlock.
WARNING: Possible network deadlock.
WARNING: Possible network deadlock.
WARNING: Possible network deadlock.
WARNING: Possible network deadlock.
WARNING: Possible network deadlock.
WARNING: Possible network deadlock.
WARNING: Possible network deadlock.
WARNING: Possible network deadlock.
WARNING: Possible network deadlock.
WARNING: Possible network deadlock.
WARNING: Possible network deadlock.
WARNING: Possible network deadlock.
WARNING: Possible network deadlock.
WARNING: Possible network deadlock.
WARNING: Possible network deadlock.
WARNING: Possible network deadlock.
WARNING: Possible network deadlock.
WARNING: Possible network deadlock.
WARNING: Possible network deadlock.
WARNING: Possible network deadlock.
WARNING: Possible network deadlock.
WARNING: Possible network deadlock.
WARNING: Possible network deadlock.
WARNING: Possible network deadlock.
WARNING: Possible network deadlock.
WARNING: Possible network deadlock.
WARNING: Possible network deadlock.
WARNING: Possible network deadlock.
WARNING: Possible network deadlock.
WARNING: Possible network deadlock.
WARNING: Possible network deadlock.
WARNING: Possible network deadlock.
WARNING: Possible network deadlock.
WARNING: Possible network deadlock.
WARNING: Possible network deadlock.
WARNING: Possible network deadlock.
WARNING: Possible network deadlock.
WARNING: Possible network deadlock.
WARNING: Possible network deadlock.
WARNING: Possible network deadlock.
WARNING: Possible network deadlock.
WARNING: Possible network deadlock.
WARNING: Possible network deadlock.
WARNING: Possible network deadlock.
WARNING: Possible network deadlock.
WARNING: Possible network deadlock.
WARNING: Possible network deadlock.
WARNING: Possible network deadlock.
WARNING: Possible network deadlock.
WARNING: Possible network deadlock.
WARNING: Possible network deadlock.
WARNING: Possible network deadlock.
WARNING: Possible network deadlock.
WARNING: Possible network deadlock.
WARNING: Possible network deadlock.
WARNING: Possible network deadlock.
WARNING: Possible network deadlock.
WARNING: Possible network deadlock.
WARNING: Possible network deadlock.
WARNING: Possible network deadlock.
WARNING: Possible network deadlock.
WARNING: Possible network deadlock.
WARNING: Possible network deadlock.
WARNING: Possible network deadlock.
WARNING: Possible network deadlock.
WARNING: Possible network deadlock.
WARNING: Possible network deadlock.
WARNING: Possible network deadlock.
WARNING: Possible network deadlock.
WARNING: Possible network deadlock.
WARNING: Possible network deadlock.
WARNING: Possible network deadlock.
WARNING: Possible network deadlock.
WARNING: Possible network deadlock.
WARNING: Possible network deadlock.
WARNING: Possible network deadlock.
WARNING: Possible network deadlock.
WARNING: Possible network deadlock.
WARNING: Possible network deadlock.
WARNING: Possible network deadlock.
WARNING: Possible network deadlock.
WARNING: Possible network deadlock.
WARNING: Possible network deadlock.
WARNING: Possible network deadlock.
WARNING: Possible network deadlock.
WARNING: Possible network deadlock.
WARNING: Possible network deadlock.
WARNING: Possible network deadlock.
WARNING: Possible network deadlock.
WARNING: Possible network deadlock.
WARNING: Possible network deadlock.
WARNING: Possible network deadlock.
WARNING: Possible network deadlock.
WARNING: Possible network deadlock.
WARNING: Possible network deadlock.
WARNING: Possible network deadlock.
WARNING: Possible network deadlock.
WARNING: Possible network deadlock.
WARNING: Possible network deadlock.
WARNING: Possible network deadlock.
WARNING: Possible network deadlock.
WARNING: Possible network deadlock.
WARNING: Possible network deadlock.
WARNING: Possible network deadlock.
WARNING: Possible network deadlock.
WARNING: Possible network deadlock.
WARNING: Possible network deadlock.
WARNING: Possible network deadlock.
WARNING: Possible network deadlock.
WARNING: Possible network deadlock.
WARNING: Possible network deadlock.
WARNING: Possible network deadlock.
WARNING: Possible network deadlock.
WARNING: Possible network deadlock.
WARNING: Possible network deadlock.
WARNING: Possible network deadlock.
WARNING: Possible network deadlock.
WARNING: Possible network deadlock.
WARNING: Possible network deadlock.
WARNING: Possible network deadlock.
WARNING: Possible network deadlock.
WARNING: Possible network deadlock.
WARNING: Possible network deadlock.
WARNING: Possible network deadlock.
WARNING: Possible network deadlock.
WARNING: Possible network deadlock.
WARNING: Possible network deadlock.
WARNING: Possible network deadlock.
WARNING: Possible network deadlock.
WARNING: Possible network deadlock.
WARNING: Possible network deadlock.
WARNING: Possible network deadlock.
WARNING: Possible network deadlock.
WARNING: Possible network deadlock.
WARNING: Possible network deadlock.
WARNING: Possible network deadlock.
WARNING: Possible network deadlock.
WARNING: Possible network deadlock.
WARNING: Possible network deadlock.
WARNING: Possible network deadlock.
WARNING: Possible network deadlock.
WARNING: Possible network deadlock.
WARNING: Possible network deadlock.
WARNING: Possible network deadlock.
WARNING: Possible network deadlock.
WARNING: Possible network deadlock.
WARNING: Possible network deadlock.
WARNING: Possible network deadlock.
WARNING: Possible network deadlock.
WARNING: Possible network deadlock.
WARNING: Possible network deadlock.
WARNING: Possible network deadlock.
WARNING: Possible network deadlock.
WARNING: Possible network deadlock.
WARNING: Possible network deadlock.
WARNING: Possible network deadlock.
WARNING: Possible network deadlock.
WARNING: Possible network deadlock.
WARNING: Possible network deadlock.
WARNING: Possible network deadlock.
WARNING: Possible network deadlock.
WARNING: Possible network deadlock.
WARNING: Possible network deadlock.
WARNING: Possible network deadlock.
WARNING: Possible network deadlock.
WARNING: Possible network deadlock.
WARNING: Possible network deadlock.
WARNING: Possible network deadlock.
WARNING: Possible network deadlock.
WARNING: Possible network deadlock.
WARNING: Possible network deadlock.
WARNING: Possible network deadlock.
WARNING: Possible network deadlock.
WARNING: Possible network deadlock.
WARNING: Possible network deadlock.
WARNING: Possible network deadlock.
WARNING: Possible network deadlock.
WARNING: Possible network deadlock.
WARNING: Possible network deadlock.
WARNING: Possible network deadlock.
WARNING: Possible network deadlock.
WARNING: Possible network deadlock.
WARNING: Possible network deadlock.
WARNING: Possible network deadlock.
WARNING: Possible network deadlock.
WARNING: Possible network deadlock.
WARNING: Possible network deadlock.
WARNING: Possible network deadlock.
WARNING: Possible network deadlock.
WARNING: Possible network deadlock.
WARNING: Possible network deadlock.
WARNING: Possible network deadlock.
WARNING: Possible network deadlock.
WARNING: Possible network deadlock.
WARNING: Possible network deadlock.
WARNING: Possible network deadlock.
WARNING: Possible network deadlock.
WARNING: Possible network deadlock.
WARNING: Possible network deadlock.
WARNING: Possible network deadlock.
WARNING: Possible network deadlock.
WARNING: Possible network deadlock.
WARNING: Possible network deadlock.
WARNING: Possible network deadlock.
WARNING: Possible network deadlock.
WARNING: Possible network deadlock.
WARNING: Possible network deadlock.
WARNING: Possible network deadlock.
WARNING: Possible network deadlock.
WARNING: Possible network deadlock.
WARNING: Possible network deadlock.
WARNING: Possible network deadlock.
WARNING: Possible network deadlock.
WARNING: Possible network deadlock.
WARNING: Possible network deadlock.
WARNING: Possible network deadlock.
WARNING: Possible network deadlock.
WARNING: Possible network deadlock.
WARNING: Possible network deadlock.
WARNING: Possible network deadlock.
WARNING: Possible network deadlock.
WARNING: Possible network deadlock.
WARNING: Possible network deadlock.
WARNING: Possible network deadlock.
WARNING: Possible network deadlock.
WARNING: Possible network deadlock.
WARNING: Possible network deadlock.
WARNING: Possible network deadlock.
WARNING: Possible network deadlock.
WARNING: Possible network deadlock.
WARNING: Possible network deadlock.
WARNING: Possible network deadlock.
WARNING: Possible network deadlock.
WARNING: Possible network deadlock.
WARNING: Possible network deadlock.
WARNING: Possible network deadlock.
WARNING: Possible network deadlock.
WARNING: Possible network deadlock.
WARNING: Possible network deadlock.
WARNING: Possible network deadlock.
WARNING: Possible network deadlock.
WARNING: Possible network deadlock.
WARNING: Possible network deadlock.
WARNING: Possible network deadlock.
WARNING: Possible network deadlock.
WARNING: Possible network deadlock.
WARNING: Possible network deadlock.
WARNING: Possible network deadlock.
WARNING: Possible network deadlock.
WARNING: Possible network deadlock.
WARNING: Possible network deadlock.
WARNING: Possible network deadlock.
WARNING: Possible network deadlock.
WARNING: Possible network deadlock.
WARNING: Possible network deadlock.
WARNING: Possible network deadlock.
WARNING: Possible network deadlock.
WARNING: Possible network deadlock.
WARNING: Possible network deadlock.
WARNING: Possible network deadlock.
WARNING: Possible network deadlock.
WARNING: Possible network deadlock.
WARNING: Possible network deadlock.
WARNING: Possible network deadlock.
WARNING: Possible network deadlock.
WARNING: Possible network deadlock.
WARNING: Possible network deadlock.
WARNING: Possible network deadlock.
WARNING: Possible network deadlock.
WARNING: Possible network deadlock.
WARNING: Possible network deadlock.
WARNING: Possible network deadlock.
WARNING: Possible network deadlock.
WARNING: Possible network deadlock.
WARNING: Possible network deadlock.
WARNING: Possible network deadlock.
WARNING: Possible network deadlock.
WARNING: Possible network deadlock.
WARNING: Possible network deadlock.
WARNING: Possible network deadlock.
WARNING: Possible network deadlock.
WARNING: Possible network deadlock.
WARNING: Possible network deadlock.
WARNING: Possible network deadlock.
WARNING: Possible network deadlock.
WARNING: Possible network deadlock.
WARNING: Possible network deadlock.
WARNING: Possible network deadlock.
WARNING: Possible network deadlock.
WARNING: Possible network deadlock.
WARNING: Possible network deadlock.
WARNING: Possible network deadlock.
WARNING: Possible network deadlock.
WARNING: Possible network deadlock.
WARNING: Possible network deadlock.
WARNING: Possible network deadlock.
WARNING: Possible network deadlock.
WARNING: Possible network deadlock.
WARNING: Possible network deadlock.
WARNING: Possible network deadlock.
WARNING: Possible network deadlock.
WARNING: Possible network deadlock.
WARNING: Possible network deadlock.
WARNING: Possible network deadlock.
WARNING: Possible network deadlock.
WARNING: Possible network deadlock.
WARNING: Possible network deadlock.
WARNING: Possible network deadlock.
WARNING: Possible network deadlock.
WARNING: Possible network deadlock.
WARNING: Possible network deadlock.
WARNING: Possible network deadlock.
WARNING: Possible network deadlock.
WARNING: Possible network deadlock.
WARNING: Possible network deadlock.
WARNING: Possible network deadlock.
WARNING: Possible network deadlock.
WARNING: Possible network deadlock.
WARNING: Possible network deadlock.
WARNING: Possible network deadlock.
WARNING: Possible network deadlock.
WARNING: Possible network deadlock.
WARNING: Possible network deadlock.
WARNING: Possible network deadlock.
WARNING: Possible network deadlock.
WARNING: Possible network deadlock.
WARNING: Possible network deadlock.
WARNING: Possible network deadlock.
WARNING: Possible network deadlock.
WARNING: Possible network deadlock.
WARNING: Possible network deadlock.
WARNING: Possible network deadlock.
WARNING: Possible network deadlock.
WARNING: Possible network deadlock.
WARNING: Possible network deadlock.
WARNING: Possible network deadlock.
WARNING: Possible network deadlock.
WARNING: Possible network deadlock.
WARNING: Possible network deadlock.
WARNING: Possible network deadlock.
WARNING: Possible network deadlock.
WARNING: Possible network deadlock.
WARNING: Possible network deadlock.
WARNING: Possible network deadlock.
WARNING: Possible network deadlock.
WARNING: Possible network deadlock.
WARNING: Possible network deadlock.
WARNING: Possible network deadlock.
WARNING: Possible network deadlock.
WARNING: Possible network deadlock.
WARNING: Possible network deadlock.
WARNING: Possible network deadlock.
WARNING: Possible network deadlock.
WARNING: Possible network deadlock.
WARNING: Possible network deadlock.
WARNING: Possible network deadlock.
WARNING: Possible network deadlock.
WARNING: Possible network deadlock.
WARNING: Possible network deadlock.
WARNING: Possible network deadlock.
WARNING: Possible network deadlock.
WARNING: Possible network deadlock.
WARNING: Possible network deadlock.
WARNING: Possible network deadlock.
WARNING: Possible network deadlock.
WARNING: Possible network deadlock.
WARNING: Possible network deadlock.
WARNING: Possible network deadlock.
WARNING: Possible network deadlock.
WARNING: Possible network deadlock.
WARNING: Possible network deadlock.
WARNING: Possible network deadlock.
WARNING: Possible network deadlock.
WARNING: Possible network deadlock.
WARNING: Possible network deadlock.
WARNING: Possible network deadlock.
WARNING: Possible network deadlock.
WARNING: Possible network deadlock.
WARNING: Possible network deadlock.
WARNING: Possible network deadlock.
WARNING: Possible network deadlock.
WARNING: Possible network deadlock.
WARNING: Possible network deadlock.
WARNING: Possible network deadlock.
WARNING: Possible network deadlock.
WARNING: Possible network deadlock.
WARNING: Possible network deadlock.
WARNING: Possible network deadlock.
WARNING: Possible network deadlock.
WARNING: Possible network deadlock.
WARNING: Possible network deadlock.
WARNING: Possible network deadlock.
WARNING: Possible network deadlock.
WARNING: Possible network deadlock.
WARNING: Possible network deadlock.
WARNING: Possible network deadlock.
WARNING: Possible network deadlock.
WARNING: Possible network deadlock.
WARNING: Possible network deadlock.
WARNING: Possible network deadlock.
WARNING: Possible network deadlock.
WARNING: Possible network deadlock.
WARNING: Possible network deadlock.
WARNING: Possible network deadlock.
WARNING: Possible network deadlock.
WARNING: Possible network deadlock.
WARNING: Possible network deadlock.
WARNING: Possible network deadlock.
WARNING: Possible network deadlock.
WARNING: Possible network deadlock.
WARNING: Possible network deadlock.
WARNING: Possible network deadlock.
WARNING: Possible network deadlock.
WARNING: Possible network deadlock.
WARNING: Possible network deadlock.
WARNING: Possible network deadlock.
WARNING: Possible network deadlock.
WARNING: Possible network deadlock.
WARNING: Possible network deadlock.
WARNING: Possible network deadlock.
WARNING: Possible network deadlock.
WARNING: Possible network deadlock.
WARNING: Possible network deadlock.
WARNING: Possible network deadlock.
WARNING: Possible network deadlock.
WARNING: Possible network deadlock.
WARNING: Possible network deadlock.
WARNING: Possible network deadlock.
WARNING: Possible network deadlock.
WARNING: Possible network deadlock.
WARNING: Possible network deadlock.
WARNING: Possible network deadlock.
WARNING: Possible network deadlock.
WARNING: Possible network deadlock.
WARNING: Possible network deadlock.
WARNING: Possible network deadlock.
WARNING: Possible network deadlock.
WARNING: Possible network deadlock.
WARNING: Possible network deadlock.
WARNING: Possible network deadlock.
WARNING: Possible network deadlock.
WARNING: Possible network deadlock.
WARNING: Possible network deadlock.
WARNING: Possible network deadlock.
WARNING: Possible network deadlock.
WARNING: Possible network deadlock.
WARNING: Possible network deadlock.
WARNING: Possible network deadlock.
WARNING: Possible network deadlock.
WARNING: Possible network deadlock.
WARNING: Possible network deadlock.
WARNING: Possible network deadlock.
WARNING: Possible network deadlock.
WARNING: Possible network deadlock.
WARNING: Possible network deadlock.
WARNING: Possible network deadlock.
WARNING: Possible network deadlock.
WARNING: Possible network deadlock.
WARNING: Possible network deadlock.
WARNING: Possible network deadlock.
WARNING: Possible network deadlock.
WARNING: Possible network deadlock.
WARNING: Possible network deadlock.
WARNING: Possible network deadlock.
WARNING: Possible network deadlock.
WARNING: Possible network deadlock.
WARNING: Possible network deadlock.
WARNING: Possible network deadlock.
WARNING: Possible network deadlock.
WARNING: Possible network deadlock.
WARNING: Possible network deadlock.
WARNING: Possible network deadlock.
WARNING: Possible network deadlock.
WARNING: Possible network deadlock.
WARNING: Possible network deadlock.
WARNING: Possible network deadlock.
WARNING: Possible network deadlock.
WARNING: Possible network deadlock.
WARNING: Possible network deadlock.
WARNING: Possible network deadlock.
WARNING: Possible network deadlock.
WARNING: Possible network deadlock.
WARNING: Possible network deadlock.
WARNING: Possible network deadlock.
WARNING: Possible network deadlock.
WARNING: Possible network deadlock.
WARNING: Possible network deadlock.
WARNING: Possible network deadlock.
WARNING: Possible network deadlock.
WARNING: Possible network deadlock.
WARNING: Possible network deadlock.
WARNING: Possible network deadlock.
WARNING: Possible network deadlock.
WARNING: Possible network deadlock.
WARNING: Possible network deadlock.
WARNING: Possible network deadlock.
WARNING: Possible network deadlock.
WARNING: Possible network deadlock.
WARNING: Possible network deadlock.
WARNING: Possible network deadlock.
WARNING: Possible network deadlock.
WARNING: Possible network deadlock.
WARNING: Possible network deadlock.
WARNING: Possible network deadlock.
WARNING: Possible network deadlock.
WARNING: Possible network deadlock.
WARNING: Possible network deadlock.
WARNING: Possible network deadlock.
WARNING: Possible network deadlock.
WARNING: Possible network deadlock.
WARNING: Possible network deadlock.
WARNING: Possible network deadlock.
WARNING: Possible network deadlock.
WARNING: Possible network deadlock.
WARNING: Possible network deadlock.
WARNING: Possible network deadlock.
WARNING: Possible network deadlock.
WARNING: Possible network deadlock.
WARNING: Possible network deadlock.
WARNING: Possible network deadlock.
WARNING: Possible network deadlock.
WARNING: Possible network deadlock.
WARNING: Possible network deadlock.
WARNING: Possible network deadlock.
WARNING: Possible network deadlock.
WARNING: Possible network deadlock.
WARNING: Possible network deadlock.
WARNING: Possible network deadlock.
WARNING: Possible network deadlock.
WARNING: Possible network deadlock.
WARNING: Possible network deadlock.
WARNING: Possible network deadlock.
WARNING: Possible network deadlock.
WARNING: Possible network deadlock.
WARNING: Possible network deadlock.
WARNING: Possible network deadlock.
WARNING: Possible network deadlock.
WARNING: Possible network deadlock.
WARNING: Possible network deadlock.
WARNING: Possible network deadlock.
WARNING: Possible network deadlock.
WARNING: Possible network deadlock.
WARNING: Possible network deadlock.
WARNING: Possible network deadlock.
WARNING: Possible network deadlock.
WARNING: Possible network deadlock.
WARNING: Possible network deadlock.
WARNING: Possible network deadlock.
WARNING: Possible network deadlock.
WARNING: Possible network deadlock.
WARNING: Possible network deadlock.
WARNING: Possible network deadlock.
WARNING: Possible network deadlock.
WARNING: Possible network deadlock.
WARNING: Possible network deadlock.
WARNING: Possible network deadlock.
WARNING: Possible network deadlock.
WARNING: Possible network deadlock.
WARNING: Possible network deadlock.
WARNING: Possible network deadlock.
WARNING: Possible network deadlock.
WARNING: Possible network deadlock.
WARNING: Possible network deadlock.
WARNING: Possible network deadlock.
WARNING: Possible network deadlock.
WARNING: Possible network deadlock.
WARNING: Possible network deadlock.
WARNING: Possible network deadlock.
WARNING: Possible network deadlock.
WARNING: Possible network deadlock.
WARNING: Possible network deadlock.
WARNING: Possible network deadlock.
WARNING: Possible network deadlock.
WARNING: Possible network deadlock.
WARNING: Possible network deadlock.
WARNING: Possible network deadlock.
WARNING: Possible network deadlock.
WARNING: Possible network deadlock.
WARNING: Possible network deadlock.
WARNING: Possible network deadlock.
WARNING: Possible network deadlock.
WARNING: Possible network deadlock.
WARNING: Possible network deadlock.
WARNING: Possible network deadlock.
WARNING: Possible network deadlock.
WARNING: Possible network deadlock.
WARNING: Possible network deadlock.
WARNING: Possible network deadlock.
WARNING: Possible network deadlock.
WARNING: Possible network deadlock.
WARNING: Possible network deadlock.
WARNING: Possible network deadlock.
WARNING: Possible network deadlock.
WARNING: Possible network deadlock.
WARNING: Possible network deadlock.
WARNING: Possible network deadlock.
WARNING: Possible network deadlock.
WARNING: Possible network deadlock.
WARNING: Possible network deadlock.
WARNING: Possible network deadlock.
WARNING: Possible network deadlock.
WARNING: Possible network deadlock.
WARNING: Possible network deadlock.
WARNING: Possible network deadlock.
WARNING: Possible network deadlock.
WARNING: Possible network deadlock.
WARNING: Possible network deadlock.
WARNING: Possible network deadlock.
WARNING: Possible network deadlock.
WARNING: Possible network deadlock.
WARNING: Possible network deadlock.
WARNING: Possible network deadlock.
WARNING: Possible network deadlock.
WARNING: Possible network deadlock.
WARNING: Possible network deadlock.
WARNING: Possible network deadlock.
WARNING: Possible network deadlock.
WARNING: Possible network deadlock.
WARNING: Possible network deadlock.
WARNING: Possible network deadlock.
WARNING: Possible network deadlock.
WARNING: Possible network deadlock.
WARNING: Possible network deadlock.
WARNING: Possible network deadlock.
WARNING: Possible network deadlock.
WARNING: Possible network deadlock.
WARNING: Possible network deadlock.
WARNING: Possible network deadlock.
WARNING: Possible network deadlock.
WARNING: Possible network deadlock.
WARNING: Possible network deadlock.
WARNING: Possible network deadlock.
WARNING: Possible network deadlock.
WARNING: Possible network deadlock.
WARNING: Possible network deadlock.
WARNING: Possible network deadlock.
WARNING: Possible network deadlock.
WARNING: Possible network deadlock.
WARNING: Possible network deadlock.
WARNING: Possible network deadlock.
WARNING: Possible network deadlock.
WARNING: Possible network deadlock.
WARNING: Possible network deadlock.
WARNING: Possible network deadlock.
WARNING: Possible network deadlock.
WARNING: Possible network deadlock.
WARNING: Possible network deadlock.
WARNING: Possible network deadlock.
WARNING: Possible network deadlock.
WARNING: Possible network deadlock.
WARNING: Possible network deadlock.
WARNING: Possible network deadlock.
WARNING: Possible network deadlock.
WARNING: Possible network deadlock.
WARNING: Possible network deadlock.
WARNING: Possible network deadlock.
WARNING: Possible network deadlock.
WARNING: Possible network deadlock.
WARNING: Possible network deadlock.
WARNING: Possible network deadlock.
WARNING: Possible network deadlock.
WARNING: Possible network deadlock.
WARNING: Possible network deadlock.
WARNING: Possible network deadlock.
WARNING: Possible network deadlock.
WARNING: Possible network deadlock.
WARNING: Possible network deadlock.
WARNING: Possible network deadlock.
WARNING: Possible network deadlock.
WARNING: Possible network deadlock.
WARNING: Possible network deadlock.
WARNING: Possible network deadlock.
WARNING: Possible network deadlock.
WARNING: Possible network deadlock.
WARNING: Possible network deadlock.
WARNING: Possible network deadlock.
WARNING: Possible network deadlock.
WARNING: Possible network deadlock.
WARNING: Possible network deadlock.
WARNING: Possible network deadlock.
WARNING: Possible network deadlock.
WARNING: Possible network deadlock.
WARNING: Possible network deadlock.
WARNING: Possible network deadlock.
WARNING: Possible network deadlock.
WARNING: Possible network deadlock.
WARNING: Possible network deadlock.
WARNING: Possible network deadlock.
WARNING: Possible network deadlock.
WARNING: Possible network deadlock.
WARNING: Possible network deadlock.
WARNING: Possible network deadlock.
WARNING: Possible network deadlock.
WARNING: Possible network deadlock.
WARNING: Possible network deadlock.
WARNING: Possible network deadlock.
WARNING: Possible network deadlock.
WARNING: Possible network deadlock.
WARNING: Possible network deadlock.
WARNING: Possible network deadlock.
WARNING: Possible network deadlock.
WARNING: Possible network deadlock.
WARNING: Possible network deadlock.
WARNING: Possible network deadlock.
WARNING: Possible network deadlock.
WARNING: Possible network deadlock.
WARNING: Possible network deadlock.
WARNING: Possible network deadlock.
WARNING: Possible network deadlock.
WARNING: Possible network deadlock.
WARNING: Possible network deadlock.
WARNING: Possible network deadlock.
WARNING: Possible network deadlock.
WARNING: Possible network deadlock.
WARNING: Possible network deadlock.
WARNING: Possible network deadlock.
WARNING: Possible network deadlock.
WARNING: Possible network deadlock.
WARNING: Possible network deadlock.
WARNING: Possible network deadlock.
WARNING: Possible network deadlock.
WARNING: Possible network deadlock.
WARNING: Possible network deadlock.
WARNING: Possible network deadlock.
WARNING: Possible network deadlock.
WARNING: Possible network deadlock.
WARNING: Possible network deadlock.
WARNING: Possible network deadlock.
WARNING: Possible network deadlock.
WARNING: Possible network deadlock.
WARNING: Possible network deadlock.
WARNING: Possible network deadlock.
WARNING: Possible network deadlock.
WARNING: Possible network deadlock.
WARNING: Possible network deadlock.
WARNING: Possible network deadlock.
WARNING: Possible network deadlock.
WARNING: Possible network deadlock.
WARNING: Possible network deadlock.
WARNING: Possible network deadlock.
WARNING: Possible network deadlock.
WARNING: Possible network deadlock.
WARNING: Possible network deadlock.
WARNING: Possible network deadlock.
WARNING: Possible network deadlock.
WARNING: Possible network deadlock.
WARNING: Possible network deadlock.
WARNING: Possible network deadlock.
WARNING: Possible network deadlock.
WARNING: Possible network deadlock.
WARNING: Possible network deadlock.
WARNING: Possible network deadlock.
WARNING: Possible network deadlock.
WARNING: Possible network deadlock.
WARNING: Possible network deadlock.
WARNING: Possible network deadlock.
WARNING: Possible network deadlock.
WARNING: Possible network deadlock.
WARNING: Possible network deadlock.
WARNING: Possible network deadlock.
WARNING: Possible network deadlock.
WARNING: Possible network deadlock.
WARNING: Possible network deadlock.
WARNING: Possible network deadlock.
WARNING: Possible network deadlock.
WARNING: Possible network deadlock.
WARNING: Possible network deadlock.
WARNING: Possible network deadlock.
WARNING: Possible network deadlock.
WARNING: Possible network deadlock.
WARNING: Possible network deadlock.
WARNING: Possible network deadlock.
WARNING: Possible network deadlock.
WARNING: Possible network deadlock.
WARNING: Possible network deadlock.
WARNING: Possible network deadlock.
WARNING: Possible network deadlock.
WARNING: Possible network deadlock.
WARNING: Possible network deadlock.
WARNING: Possible network deadlock.
WARNING: Possible network deadlock.
WARNING: Possible network deadlock.
WARNING: Possible network deadlock.
WARNING: Possible network deadlock.
WARNING: Possible network deadlock.
WARNING: Possible network deadlock.
WARNING: Possible network deadlock.
WARNING: Possible network deadlock.
WARNING: Possible network deadlock.
WARNING: Possible network deadlock.
WARNING: Possible network deadlock.
WARNING: Possible network deadlock.
WARNING: Possible network deadlock.
WARNING: Possible network deadlock.
WARNING: Possible network deadlock.
WARNING: Possible network deadlock.
WARNING: Possible network deadlock.
WARNING: Possible network deadlock.
WARNING: Possible network deadlock.
WARNING: Possible network deadlock.
WARNING: Possible network deadlock.
WARNING: Possible network deadlock.
WARNING: Possible network deadlock.
WARNING: Possible network deadlock.
WARNING: Possible network deadlock.
WARNING: Possible network deadlock.
WARNING: Possible network deadlock.
WARNING: Possible network deadlock.
WARNING: Possible network deadlock.
WARNING: Possible network deadlock.
WARNING: Possible network deadlock.
WARNING: Possible network deadlock.
WARNING: Possible network deadlock.
WARNING: Possible network deadlock.
WARNING: Possible network deadlock.
WARNING: Possible network deadlock.
WARNING: Possible network deadlock.
WARNING: Possible network deadlock.
WARNING: Possible network deadlock.
WARNING: Possible network deadlock.
WARNING: Possible network deadlock.
WARNING: Possible network deadlock.
WARNING: Possible network deadlock.
WARNING: Possible network deadlock.
WARNING: Possible network deadlock.
WARNING: Possible network deadlock.
WARNING: Possible network deadlock.
WARNING: Possible network deadlock.
WARNING: Possible network deadlock.
WARNING: Possible network deadlock.
WARNING: Possible network deadlock.
WARNING: Possible network deadlock.
WARNING: Possible network deadlock.
WARNING: Possible network deadlock.
WARNING: Possible network deadlock.
WARNING: Possible network deadlock.
WARNING: Possible network deadlock.
WARNING: Possible network deadlock.
WARNING: Possible network deadlock.
WARNING: Possible network deadlock.
WARNING: Possible network deadlock.
WARNING: Possible network deadlock.
WARNING: Possible network deadlock.
WARNING: Possible network deadlock.
WARNING: Possible network deadlock.
WARNING: Possible network deadlock.
WARNING: Possible network deadlock.
WARNING: Possible network deadlock.
WARNING: Possible network deadlock.
WARNING: Possible network deadlock.
WARNING: Possible network deadlock.
WARNING: Possible network deadlock.
WARNING: Possible network deadlock.
WARNING: Possible network deadlock.
WARNING: Possible network deadlock.
WARNING: Possible network deadlock.
WARNING: Possible network deadlock.
WARNING: Possible network deadlock.
WARNING: Possible network deadlock.
WARNING: Possible network deadlock.
WARNING: Possible network deadlock.
WARNING: Possible network deadlock.
WARNING: Possible network deadlock.
WARNING: Possible network deadlock.
WARNING: Possible network deadlock.
WARNING: Possible network deadlock.
WARNING: Possible network deadlock.
WARNING: Possible network deadlock.
WARNING: Possible network deadlock.
WARNING: Possible network deadlock.
WARNING: Possible network deadlock.
WARNING: Possible network deadlock.
WARNING: Possible network deadlock.
WARNING: Possible network deadlock.
WARNING: Possible network deadlock.
WARNING: Possible network deadlock.
WARNING: Possible network deadlock.
WARNING: Possible network deadlock.
WARNING: Possible network deadlock.
WARNING: Possible network deadlock.
WARNING: Possible network deadlock.
WARNING: Possible network deadlock.
WARNING: Possible network deadlock.
WARNING: Possible network deadlock.
WARNING: Possible network deadlock.
WARNING: Possible network deadlock.
WARNING: Possible network deadlock.
WARNING: Possible network deadlock.
WARNING: Possible network deadlock.
WARNING: Possible network deadlock.
WARNING: Possible network deadlock.
WARNING: Possible network deadlock.
WARNING: Possible network deadlock.
WARNING: Possible network deadlock.
WARNING: Possible network deadlock.
WARNING: Possible network deadlock.
WARNING: Possible network deadlock.
WARNING: Possible network deadlock.
WARNING: Possible network deadlock.
WARNING: Possible network deadlock.
WARNING: Possible network deadlock.
WARNING: Possible network deadlock.
WARNING: Possible network deadlock.
WARNING: Possible network deadlock.
WARNING: Possible network deadlock.
WARNING: Possible network deadlock.
WARNING: Possible network deadlock.
WARNING: Possible network deadlock.
WARNING: Possible network deadlock.
WARNING: Possible network deadlock.
WARNING: Possible network deadlock.
WARNING: Possible network deadlock.
WARNING: Possible network deadlock.
WARNING: Possible network deadlock.
WARNING: Possible network deadlock.
WARNING: Possible network deadlock.
WARNING: Possible network deadlock.
WARNING: Possible network deadlock.
WARNING: Possible network deadlock.
WARNING: Possible network deadlock.
WARNING: Possible network deadlock.
WARNING: Possible network deadlock.
WARNING: Possible network deadlock.
WARNING: Possible network deadlock.
WARNING: Possible network deadlock.
WARNING: Possible network deadlock.
WARNING: Possible network deadlock.
WARNING: Possible network deadlock.
WARNING: Possible network deadlock.
WARNING: Possible network deadlock.
WARNING: Possible network deadlock.
WARNING: Possible network deadlock.
WARNING: Possible network deadlock.
WARNING: Possible network deadlock.
WARNING: Possible network deadlock.
WARNING: Possible network deadlock.
WARNING: Possible network deadlock.
WARNING: Possible network deadlock.
WARNING: Possible network deadlock.
WARNING: Possible network deadlock.
WARNING: Possible network deadlock.
WARNING: Possible network deadlock.
WARNING: Possible network deadlock.
WARNING: Possible network deadlock.
WARNING: Possible network deadlock.
WARNING: Possible network deadlock.
WARNING: Possible network deadlock.
WARNING: Possible network deadlock.
WARNING: Possible network deadlock.
WARNING: Possible network deadlock.
WARNING: Possible network deadlock.
WARNING: Possible network deadlock.
WARNING: Possible network deadlock.
WARNING: Possible network deadlock.
WARNING: Possible network deadlock.
WARNING: Possible network deadlock.
WARNING: Possible network deadlock.
WARNING: Possible network deadlock.
WARNING: Possible network deadlock.
WARNING: Possible network deadlock.
WARNING: Possible network deadlock.
WARNING: Possible network deadlock.
WARNING: Possible network deadlock.
WARNING: Possible network deadlock.
WARNING: Possible network deadlock.
WARNING: Possible network deadlock.
WARNING: Possible network deadlock.
WARNING: Possible network deadlock.
WARNING: Possible network deadlock.
WARNING: Possible network deadlock.
WARNING: Possible network deadlock.
WARNING: Possible network deadlock.
WARNING: Possible network deadlock.
WARNING: Possible network deadlock.
WARNING: Possible network deadlock.
WARNING: Possible network deadlock.
WARNING: Possible network deadlock.
WARNING: Possible network deadlock.
WARNING: Possible network deadlock.
WARNING: Possible network deadlock.
WARNING: Possible network deadlock.
WARNING: Possible network deadlock.
WARNING: Possible network deadlock.
WARNING: Possible network deadlock.
WARNING: Possible network deadlock.
WARNING: Possible network deadlock.
WARNING: Possible network deadlock.
WARNING: Possible network deadlock.
WARNING: Possible network deadlock.
WARNING: Possible network deadlock.
WARNING: Possible network deadlock.
WARNING: Possible network deadlock.
WARNING: Possible network deadlock.
WARNING: Possible network deadlock.
WARNING: Possible network deadlock.
WARNING: Possible network deadlock.
WARNING: Possible network deadlock.
WARNING: Possible network deadlock.
WARNING: Possible network deadlock.
WARNING: Possible network deadlock.
WARNING: Possible network deadlock.
WARNING: Possible network deadlock.
WARNING: Possible network deadlock.
WARNING: Possible network deadlock.
WARNING: Possible network deadlock.
WARNING: Possible network deadlock.
WARNING: Possible network deadlock.
WARNING: Possible network deadlock.
WARNING: Possible network deadlock.
WARNING: Possible network deadlock.
WARNING: Possible network deadlock.
WARNING: Possible network deadlock.
WARNING: Possible network deadlock.
WARNING: Possible network deadlock.
WARNING: Possible network deadlock.
WARNING: Possible network deadlock.
WARNING: Possible network deadlock.
WARNING: Possible network deadlock.
WARNING: Possible network deadlock.
WARNING: Possible network deadlock.
WARNING: Possible network deadlock.
WARNING: Possible network deadlock.
WARNING: Possible network deadlock.
WARNING: Possible network deadlock.
WARNING: Possible network deadlock.
WARNING: Possible network deadlock.
WARNING: Possible network deadlock.
WARNING: Possible network deadlock.
WARNING: Possible network deadlock.
WARNING: Possible network deadlock.
WARNING: Possible network deadlock.
WARNING: Possible network deadlock.
WARNING: Possible network deadlock.
WARNING: Possible network deadlock.
WARNING: Possible network deadlock.
WARNING: Possible network deadlock.
WARNING: Possible network deadlock.
WARNING: Possible network deadlock.
WARNING: Possible network deadlock.
WARNING: Possible network deadlock.
WARNING: Possible network deadlock.
WARNING: Possible network deadlock.
WARNING: Possible network deadlock.
WARNING: Possible network deadlock.
WARNING: Possible network deadlock.
WARNING: Possible network deadlock.
WARNING: Possible network deadlock.
WARNING: Possible network deadlock.
WARNING: Possible network deadlock.
WARNING: Possible network deadlock.
WARNING: Possible network deadlock.
WARNING: Possible network deadlock.
WARNING: Possible network deadlock.
WARNING: Possible network deadlock.
WARNING: Possible network deadlock.
WARNING: Possible network deadlock.
WARNING: Possible network deadlock.
WARNING: Possible network deadlock.
WARNING: Possible network deadlock.
WARNING: Possible network deadlock.
WARNING: Possible network deadlock.
WARNING: Possible network deadlock.
WARNING: Possible network deadlock.
WARNING: Possible network deadlock.
WARNING: Possible network deadlock.
WARNING: Possible network deadlock.
WARNING: Possible network deadlock.
WARNING: Possible network deadlock.
WARNING: Possible network deadlock.
WARNING: Possible network deadlock.
WARNING: Possible network deadlock.
WARNING: Possible network deadlock.
WARNING: Possible network deadlock.
WARNING: Possible network deadlock.
WARNING: Possible network deadlock.
WARNING: Possible network deadlock.
WARNING: Possible network deadlock.
WARNING: Possible network deadlock.
WARNING: Possible network deadlock.
WARNING: Possible network deadlock.
WARNING: Possible network deadlock.
WARNING: Possible network deadlock.
WARNING: Possible network deadlock.
WARNING: Possible network deadlock.
WARNING: Possible network deadlock.
WARNING: Possible network deadlock.
WARNING: Possible network deadlock.
WARNING: Possible network deadlock.
WARNING: Possible network deadlock.
WARNING: Possible network deadlock.
WARNING: Possible network deadlock.
WARNING: Possible network deadlock.
WARNING: Possible network deadlock.
WARNING: Possible network deadlock.
WARNING: Possible network deadlock.
WARNING: Possible network deadlock.
WARNING: Possible network deadlock.
WARNING: Possible network deadlock.
WARNING: Possible network deadlock.
WARNING: Possible network deadlock.
WARNING: Possible network deadlock.
WARNING: Possible network deadlock.
WARNING: Possible network deadlock.
WARNING: Possible network deadlock.
WARNING: Possible network deadlock.
WARNING: Possible network deadlock.
WARNING: Possible network deadlock.
WARNING: Possible network deadlock.
WARNING: Possible network deadlock.
WARNING: Possible network deadlock.
WARNING: Possible network deadlock.
WARNING: Possible network deadlock.
WARNING: Possible network deadlock.
WARNING: Possible network deadlock.
WARNING: Possible network deadlock.
WARNING: Possible network deadlock.
WARNING: Possible network deadlock.
WARNING: Possible network deadlock.
WARNING: Possible network deadlock.
WARNING: Possible network deadlock.
WARNING: Possible network deadlock.
WARNING: Possible network deadlock.
WARNING: Possible network deadlock.
WARNING: Possible network deadlock.
WARNING: Possible network deadlock.
WARNING: Possible network deadlock.
WARNING: Possible network deadlock.
WARNING: Possible network deadlock.
WARNING: Possible network deadlock.
WARNING: Possible network deadlock.
WARNING: Possible network deadlock.
WARNING: Possible network deadlock.
WARNING: Possible network deadlock.
WARNING: Possible network deadlock.
WARNING: Possible network deadlock.
WARNING: Possible network deadlock.
WARNING: Possible network deadlock.
WARNING: Possible network deadlock.
WARNING: Possible network deadlock.
WARNING: Possible network deadlock.
WARNING: Possible network deadlock.
WARNING: Possible network deadlock.
WARNING: Possible network deadlock.
WARNING: Possible network deadlock.
WARNING: Possible network deadlock.
WARNING: Possible network deadlock.
WARNING: Possible network deadlock.
WARNING: Possible network deadlock.
WARNING: Possible network deadlock.
WARNING: Possible network deadlock.
WARNING: Possible network deadlock.
WARNING: Possible network deadlock.
WARNING: Possible network deadlock.
WARNING: Possible network deadlock.
WARNING: Possible network deadlock.
WARNING: Possible network deadlock.
WARNING: Possible network deadlock.
WARNING: Possible network deadlock.
WARNING: Possible network deadlock.
WARNING: Possible network deadlock.
WARNING: Possible network deadlock.
WARNING: Possible network deadlock.
WARNING: Possible network deadlock.
WARNING: Possible network deadlock.
WARNING: Possible network deadlock.
WARNING: Possible network deadlock.
WARNING: Possible network deadlock.
WARNING: Possible network deadlock.
WARNING: Possible network deadlock.
WARNING: Possible network deadlock.
WARNING: Possible network deadlock.
WARNING: Possible network deadlock.
WARNING: Possible network deadlock.
WARNING: Possible network deadlock.
WARNING: Possible network deadlock.
WARNING: Possible network deadlock.
WARNING: Possible network deadlock.
WARNING: Possible network deadlock.
WARNING: Possible network deadlock.
WARNING: Possible network deadlock.
WARNING: Possible network deadlock.
WARNING: Possible network deadlock.
WARNING: Possible network deadlock.
WARNING: Possible network deadlock.
WARNING: Possible network deadlock.
WARNING: Possible network deadlock.
WARNING: Possible network deadlock.
WARNING: Possible network deadlock.
WARNING: Possible network deadlock.
WARNING: Possible network deadlock.
WARNING: Possible network deadlock.
WARNING: Possible network deadlock.
WARNING: Possible network deadlock.
WARNING: Possible network deadlock.
WARNING: Possible network deadlock.
WARNING: Possible network deadlock.
WARNING: Possible network deadlock.
WARNING: Possible network deadlock.
WARNING: Possible network deadlock.
WARNING: Possible network deadlock.
WARNING: Possible network deadlock.
WARNING: Possible network deadlock.
WARNING: Possible network deadlock.
WARNING: Possible network deadlock.
WARNING: Possible network deadlock.
WARNING: Possible network deadlock.
WARNING: Possible network deadlock.
WARNING: Possible network deadlock.
WARNING: Possible network deadlock.
WARNING: Possible network deadlock.
WARNING: Possible network deadlock.
WARNING: Possible network deadlock.
WARNING: Possible network deadlock.
WARNING: Possible network deadlock.
WARNING: Possible network deadlock.
WARNING: Possible network deadlock.
WARNING: Possible network deadlock.
WARNING: Possible network deadlock.
WARNING: Possible network deadlock.
WARNING: Possible network deadlock.
WARNING: Possible network deadlock.
WARNING: Possible network deadlock.
WARNING: Possible network deadlock.
WARNING: Possible network deadlock.
WARNING: Possible network deadlock.
WARNING: Possible network deadlock.
WARNING: Possible network deadlock.
WARNING: Possible network deadlock.
WARNING: Possible network deadlock.
WARNING: Possible network deadlock.
WARNING: Possible network deadlock.
WARNING: Possible network deadlock.
WARNING: Possible network deadlock.
WARNING: Possible network deadlock.
WARNING: Possible network deadlock.
WARNING: Possible network deadlock.
WARNING: Possible network deadlock.
WARNING: Possible network deadlock.
WARNING: Possible network deadlock.
WARNING: Possible network deadlock.
WARNING: Possible network deadlock.
WARNING: Possible network deadlock.
WARNING: Possible network deadlock.
WARNING: Possible network deadlock.
WARNING: Possible network deadlock.
WARNING: Possible network deadlock.
WARNING: Possible network deadlock.
WARNING: Possible network deadlock.
WARNING: Possible network deadlock.
WARNING: Possible network deadlock.
WARNING: Possible network deadlock.
WARNING: Possible network deadlock.
WARNING: Possible network deadlock.
WARNING: Possible network deadlock.
WARNING: Possible network deadlock.
WARNING: Possible network deadlock.
WARNING: Possible network deadlock.
WARNING: Possible network deadlock.
WARNING: Possible network deadlock.
WARNING: Possible network deadlock.
WARNING: Possible network deadlock.
WARNING: Possible network deadlock.
WARNING: Possible network deadlock.
WARNING: Possible network deadlock.
WARNING: Possible network deadlock.
WARNING: Possible network deadlock.
WARNING: Possible network deadlock.
WARNING: Possible network deadlock.
WARNING: Possible network deadlock.
WARNING: Possible network deadlock.
WARNING: Possible network deadlock.
WARNING: Possible network deadlock.
WARNING: Possible network deadlock.
WARNING: Possible network deadlock.
WARNING: Possible network deadlock.
WARNING: Possible network deadlock.
WARNING: Possible network deadlock.
WARNING: Possible network deadlock.
WARNING: Possible network deadlock.
WARNING: Possible network deadlock.
WARNING: Possible network deadlock.
WARNING: Possible network deadlock.
WARNING: Possible network deadlock.
WARNING: Possible network deadlock.
WARNING: Possible network deadlock.
WARNING: Possible network deadlock.
WARNING: Possible network deadlock.
WARNING: Possible network deadlock.
WARNING: Possible network deadlock.
WARNING: Possible network deadlock.
WARNING: Possible network deadlock.
WARNING: Possible network deadlock.
WARNING: Possible network deadlock.
WARNING: Possible network deadlock.
WARNING: Possible network deadlock.
WARNING: Possible network deadlock.
WARNING: Possible network deadlock.
WARNING: Possible network deadlock.
WARNING: Possible network deadlock.
WARNING: Possible network deadlock.
WARNING: Possible network deadlock.
WARNING: Possible network deadlock.
[...]
Ready @ 8688569 -   mf: uid=2619257, sid4294967295:w4294967295, part=0, addr=0xc11a6e00, store, size=128, L2_WRBK  status = IN_PARTITION_DRAM_LATENCY_QUEUE (8688469), 
Ready @ 8688578 -   mf: uid=2619258, sid4294967295:w4294967295, part=0, addr=0xc11a7680, store, size=128, L2_WRBK  status = IN_PARTITION_DRAM_LATENCY_QUEUE (8688478), 
Ready @ 8688587 -   mf: uid=2619259, sid4294967295:w4294967295, part=0, addr=0xc11a5e80, store, size=128, L2_WRBK  status = IN_PARTITION_DRAM_LATENCY_QUEUE (8688487), 
Ready @ 8688596 -   mf: uid=2619260, sid4294967295:w4294967295, part=0, addr=0xc11a8680, store, size=128, L2_WRBK  status = IN_PARTITION_DRAM_LATENCY_QUEUE (8688496), 
Ready @ 8688605 -   mf: uid=2619261, sid4294967295:w4294967295, part=0, addr=0xc11a6e80, store, size=128, L2_WRBK  status = IN_PARTITION_DRAM_LATENCY_QUEUE (8688505), 
Ready @ 8688640 -   mf: uid=2619262, sid4294967295:w4294967295, part=0, addr=0xc11a9680, store, size=128, L2_WRBK  status = IN_PARTITION_DRAM_LATENCY_QUEUE (8688540), 
Ready @ 8688649 -   mf: uid=2619263, sid4294967295:w4294967295, part=0, addr=0xc11a7e80, store, size=128, L2_WRBK  status = IN_PARTITION_DRAM_LATENCY_QUEUE (8688549), 
Ready @ 8688684 -   mf: uid=2619264, sid4294967295:w4294967295, part=0, addr=0xc11a4780, store, size=128, L2_WRBK  status = IN_PARTITION_DRAM_LATENCY_QUEUE (8688584), 
Ready @ 8688693 -   mf: uid=2619265, sid4294967295:w4294967295, part=0, addr=0xc11a1e00, store, size=128, L2_WRBK  status = IN_PARTITION_DRAM_LATENCY_QUEUE (8688593), 
Ready @ 8688702 -   mf: uid=2619266, sid4294967295:w4294967295, part=0, addr=0xc11aa680, store, size=128, L2_WRBK  status = IN_PARTITION_DRAM_LATENCY_QUEUE (8688602), 
Ready @ 8688711 -   mf: uid=2619267, sid4294967295:w4294967295, part=0, addr=0xc11a8e80, store, size=128, L2_WRBK  status = IN_PARTITION_DRAM_LATENCY_QUEUE (8688611), 
Ready @ 8688745 -   mf: uid=2619268, sid4294967295:w4294967295, part=0, addr=0xc11ab680, store, size=128, L2_WRBK  status = IN_PARTITION_DRAM_LATENCY_QUEUE (8688645), 
Ready @ 8688755 -   mf: uid=2619269, sid4294967295:w4294967295, part=0, addr=0xc11abe80, store, size=128, L2_WRBK  status = IN_PARTITION_DRAM_LATENCY_QUEUE (8688655), 
Ready @ 8688764 -   mf: uid=2619270, sid4294967295:w4294967295, part=0, addr=0xc11ac680, store, size=128, L2_WRBK  status = IN_PARTITION_DRAM_LATENCY_QUEUE (8688664), 
Ready @ 8688773 -   mf: uid=2619271, sid4294967295:w4294967295, part=0, addr=0xc11aae80, store, size=128, L2_WRBK  status = IN_PARTITION_DRAM_LATENCY_QUEUE (8688673), 
Ready @ 8688782 -   mf: uid=2619272, sid4294967295:w4294967295, part=0, addr=0xc11ad680, store, size=128, L2_WRBK  status = IN_PARTITION_DRAM_LATENCY_QUEUE (8688682), 
Ready @ 8688816 -   mf: uid=2619273, sid4294967295:w4294967295, part=0, addr=0xc11ade80, store, size=128, L2_WRBK  status = IN_PARTITION_DRAM_LATENCY_QUEUE (8688716), 
Ready @ 8688825 -   mf: uid=2619274, sid4294967295:w4294967295, part=0, addr=0xc11ae680, store, size=128, L2_WRBK  status = IN_PARTITION_DRAM_LATENCY_QUEUE (8688725), 
Ready @ 8688834 -   mf: uid=2619275, sid4294967295:w4294967295, part=0, addr=0xc11ace80, store, size=128, L2_WRBK  status = IN_PARTITION_DRAM_LATENCY_QUEUE (8688734), 
Ready @ 8688844 -   mf: uid=2619276, sid4294967295:w4294967295, part=0, addr=0xc11a4f00, store, size=128, L2_WRBK  status = IN_PARTITION_DRAM_LATENCY_QUEUE (8688744), 
Ready @ 8688853 -   mf: uid=2619277, sid4294967295:w4294967295, part=0, addr=0xc11a6600, store, size=128, L2_WRBK  status = IN_PARTITION_DRAM_LATENCY_QUEUE (8688753), 
Ready @ 8688887 -   mf: uid=2619278, sid4294967295:w4294967295, part=0, addr=0xc11af680, store, size=128, L2_WRBK  status = IN_PARTITION_DRAM_LATENCY_QUEUE (8688787), 
Ready @ 8688896 -   mf: uid=2619279, sid4294967295:w4294967295, part=0, addr=0xc11afe80, store, size=128, L2_WRBK  status = IN_PARTITION_DRAM_LATENCY_QUEUE (8688796), 
Ready @ 8688905 -   mf: uid=2619280, sid4294967295:w4294967295, part=0, addr=0xc11a5700, store, size=128, L2_WRBK  status = IN_PARTITION_DRAM_LATENCY_QUEUE (8688805), 
Ready @ 8688914 -   mf: uid=2619281, sid4294967295:w4294967295, part=0, addr=0xc11aee80, store, size=128, L2_WRBK  status = IN_PARTITION_DRAM_LATENCY_QUEUE (8688814), 
Ready @ 8688923 -   mf: uid=2619282, sid4294967295:w4294967295, part=0, addr=0xc11a7600, store, size=128, L2_WRBK  status = IN_PARTITION_DRAM_LATENCY_QUEUE (8688823), 
Ready @ 8688958 -   mf: uid=2619283, sid4294967295:w4294967295, part=0, addr=0xc11a3e00, store, size=128, L2_WRBK  status = IN_PARTITION_DRAM_LATENCY_QUEUE (8688858), 
Ready @ 8688967 -   mf: uid=2619284, sid4294967295:w4294967295, part=0, addr=0xc11a8600, store, size=128, L2_WRBK  status = IN_PARTITION_DRAM_LATENCY_QUEUE (8688867), 
Ready @ 8688976 -   mf: uid=2619285, sid4294967295:w4294967295, part=0, addr=0xc11a8e00, store, size=128, L2_WRBK  status = IN_PARTITION_DRAM_LATENCY_QUEUE (8688876), 
Ready @ 8688985 -   mf: uid=2619286, sid4294967295:w4294967295, part=0, addr=0xc11a9600, store, size=128, L2_WRBK  status = IN_PARTITION_DRAM_LATENCY_QUEUE (8688885), 
Ready @ 8688994 -   mf: uid=2619287, sid4294967295:w4294967295, part=0, addr=0xc11a9e00, store, size=128, L2_WRBK  status = IN_PARTITION_DRAM_LATENCY_QUEUE (8688894), 
Ready @ 8689029 -   mf: uid=2619288, sid4294967295:w4294967295, part=0, addr=0xc11a4700, store, size=128, L2_WRBK  status = IN_PARTITION_DRAM_LATENCY_QUEUE (8688929), 
Ready @ 8689063 -   mf: uid=2619289, sid4294967295:w4294967295, part=0, addr=0xc11a5f00, store, size=128, L2_WRBK  status = IN_PARTITION_DRAM_LATENCY_QUEUE (8688963), 
Ready @ 8689073 -   mf: uid=2619290, sid4294967295:w4294967295, part=0, addr=0xc11aa600, store, size=128, L2_WRBK  status = IN_PARTITION_DRAM_LATENCY_QUEUE (8688973), 
Ready @ 8689082 -   mf: uid=2619291, sid4294967295:w4294967295, part=0, addr=0xc11aae00, store, size=128, L2_WRBK  status = IN_PARTITION_DRAM_LATENCY_QUEUE (8688982), 
Ready @ 8689091 -   mf: uid=2619292, sid4294967295:w4294967295, part=0, addr=0xc11ab600, store, size=128, L2_WRBK  status = IN_PARTITION_DRAM_LATENCY_QUEUE (8688991), 
Ready @ 8689125 -   mf: uid=2619293, sid4294967295:w4294967295, part=0, addr=0xc11abe00, store, size=128, L2_WRBK  status = IN_PARTITION_DRAM_LATENCY_QUEUE (8689025), 
Ready @ 8689160 -   mf: uid=2619294, sid4294967295:w4294967295, part=0, addr=0xc11ac600, store, size=128, L2_WRBK  status = IN_PARTITION_DRAM_LATENCY_QUEUE (8689060), 
Ready @ 8689169 -   mf: uid=2619295, sid4294967295:w4294967295, part=0, addr=0xc11b6e00, store, size=128, L2_WRBK  status = IN_PARTITION_DRAM_LATENCY_QUEUE (8689069), 
Ready @ 8689178 -   mf: uid=2619296, sid4294967295:w4294967295, part=0, addr=0xc11ad600, store, size=128, L2_WRBK  status = IN_PARTITION_DRAM_LATENCY_QUEUE (8689078), 
Ready @ 8689187 -   mf: uid=2619297, sid4294967295:w4294967295, part=0, addr=0xc11ade00, store, size=128, L2_WRBK  status = IN_PARTITION_DRAM_LATENCY_QUEUE (8689087), 
Ready @ 8689196 -   mf: uid=2619298, sid4294967295:w4294967295, part=0, addr=0xc11ae600, store, size=128, L2_WRBK  status = IN_PARTITION_DRAM_LATENCY_QUEUE (8689096), 
Ready @ 8689231 -   mf: uid=2619299, sid4294967295:w4294967295, part=0, addr=0xc11ace00, store, size=128, L2_WRBK  status = IN_PARTITION_DRAM_LATENCY_QUEUE (8689131), 
Ready @ 8689265 -   mf: uid=2619300, sid4294967295:w4294967295, part=0, addr=0xc11a4f80, store, size=128, L2_WRBK  status = IN_PARTITION_DRAM_LATENCY_QUEUE (8689165), 
Ready @ 8689274 -   mf: uid=2619301, sid4294967295:w4294967295, part=0, addr=0xc11a6780, store, size=128, L2_WRBK  status = IN_PARTITION_DRAM_LATENCY_QUEUE (8689174), 
Ready @ 8689283 -   mf: uid=2619302, sid4294967295:w4294967295, part=0, addr=0xc11af600, store, size=128, L2_WRBK  status = IN_PARTITION_DRAM_LATENCY_QUEUE (8689183), 
Ready @ 8689292 -   mf: uid=2619303, sid4294967295:w4294967295, part=0, addr=0xc11afe00, store, size=128, L2_WRBK  status = IN_PARTITION_DRAM_LATENCY_QUEUE (8689192), 
Ready @ 8689302 -   mf: uid=2619304, sid4294967295:w4294967295, part=0, addr=0xc11a5780, store, size=128, L2_WRBK  status = IN_PARTITION_DRAM_LATENCY_QUEUE (8689202), 
Ready @ 8689336 -   mf: uid=2619305, sid4294967295:w4294967295, part=0, addr=0xc11a6f00, store, size=128, L2_WRBK  status = IN_PARTITION_DRAM_LATENCY_QUEUE (8689236), 
Ready @ 8689345 -   mf: uid=2619306, sid4294967295:w4294967295, part=0, addr=0xc11a7700, store, size=128, L2_WRBK  status = IN_PARTITION_DRAM_LATENCY_QUEUE (8689245), 
Ready @ 8689354 -   mf: uid=2619307, sid4294967295:w4294967295, part=0, addr=0xc11a7f00, store, size=128, L2_WRBK  status = IN_PARTITION_DRAM_LATENCY_QUEUE (8689254), 
Ready @ 8689363 -   mf: uid=2619308, sid4294967295:w4294967295, part=0, addr=0xc11a6700, store, size=128, L2_WRBK  status = IN_PARTITION_DRAM_LATENCY_QUEUE (8689263), 
Ready @ 8689372 -   mf: uid=2619309, sid4294967295:w4294967295, part=0, addr=0xc11a8f00, store, size=128, L2_WRBK  status = IN_PARTITION_DRAM_LATENCY_QUEUE (8689272), 
Ready @ 8689381 -   mf: uid=2619310, sid4294967295:w4294967295, part=0, addr=0xc11a9700, store, size=128, L2_WRBK  status = IN_PARTITION_DRAM_LATENCY_QUEUE (8689281), 
Ready @ 8689416 -   mf: uid=2619311, sid4294967295:w4294967295, part=0, addr=0xc11a9f00, store, size=128, L2_WRBK  status = IN_PARTITION_DRAM_LATENCY_QUEUE (8689316), 
Ready @ 8689425 -   mf: uid=2619312, sid4294967295:w4294967295, part=0, addr=0xc11a5f80, store, size=128, L2_WRBK  status = IN_PARTITION_DRAM_LATENCY_QUEUE (8689325), 
Ready @ 8689434 -   mf: uid=2619313, sid4294967295:w4294967295, part=0, addr=0xc11a8700, store, size=128, L2_WRBK  status = IN_PARTITION_DRAM_LATENCY_QUEUE (8689334), 
Ready @ 8689443 -   mf: uid=2619314, sid4294967295:w4294967295, part=0, addr=0xc11aaf00, store, size=128, L2_WRBK  status = IN_PARTITION_DRAM_LATENCY_QUEUE (8689343), 
Ready @ 8689452 -   mf: uid=2619315, sid4294967295:w4294967295, part=0, addr=0xc11ab700, store, size=128, L2_WRBK  status = IN_PARTITION_DRAM_LATENCY_QUEUE (8689352), 
DRAM[0]: 1 bks, busW=4 BL=8 CL=16, tRRD=8 tCCD=2, tRCD=16 tRAS=37 tRP=16 tRC=52
n_cmd=15330592 n_nop=13666544 n_act=251465 n_pre=251464 n_ref_event=0 n_req=726957 n_rd=582150 n_rd_L2_A=0 n_write=0 n_wr_bk=578969 bw_util=0.1515
n_activity=14927694 dram_eff=0.1556
bk0: 582150a 1132928i 

------------------------------------------------------------------------
------------bank[0] rowcount ----------
0 rowcount : 0
1 rowcount : 0
2 rowcount : 0
3 rowcount : 0
4 rowcount : 0
5 rowcount : 0
6 rowcount : 0
7 rowcount : 0
8 rowcount : 0
9 rowcount : 0
10 rowcount : 0
11 rowcount : 0
12 rowcount : 0
13 rowcount : 0
14 rowcount : 0
15 rowcount : 0
16 rowcount : 0
17 rowcount : 0
18 rowcount : 0
19 rowcount : 0
20 rowcount : 0
21 rowcount : 0
22 rowcount : 0
23 rowcount : 0
24 rowcount : 0
25 rowcount : 0
26 rowcount : 0
27 rowcount : 0
28 rowcount : 0
29 rowcount : 0
30 rowcount : 0
31 rowcount : 0
32 rowcount : 0
33 rowcount : 0
34 rowcount : 0
35 rowcount : 0
36 rowcount : 0
37 rowcount : 0
38 rowcount : 0
39 rowcount : 0
40 rowcount : 0
41 rowcount : 0
42 rowcount : 0
43 rowcount : 0
44 rowcount : 0
45 rowcount : 0
46 rowcount : 0
47 rowcount : 0
48 rowcount : 0
49 rowcount : 0
50 rowcount : 0
51 rowcount : 0
52 rowcount : 0
53 rowcount : 0
54 rowcount : 0
55 rowcount : 0
56 rowcount : 0
57 rowcount : 0
58 rowcount : 0
59 rowcount : 0
60 rowcount : 0
61 rowcount : 0
62 rowcount : 0
63 rowcount : 0
64 rowcount : 0
65 rowcount : 0
66 rowcount : 0
67 rowcount : 0
68 rowcount : 0
69 rowcount : 0
70 rowcount : 0
71 rowcount : 0
72 rowcount : 0
73 rowcount : 0
74 rowcount : 0
75 rowcount : 0
76 rowcount : 0
77 rowcount : 0
78 rowcount : 0
79 rowcount : 0
80 rowcount : 0
81 rowcount : 0
82 rowcount : 0
83 rowcount : 0
84 rowcount : 0
85 rowcount : 0
86 rowcount : 0
87 rowcount : 0
88 rowcount : 0
89 rowcount : 0
90 rowcount : 0
91 rowcount : 0
92 rowcount : 0
93 rowcount : 0
94 rowcount : 0
95 rowcount : 0
96 rowcount : 0
97 rowcount : 0
98 rowcount : 0
99 rowcount : 0
100 rowcount : 0
101 rowcount : 0
102 rowcount : 0
103 rowcount : 0
104 rowcount : 0
105 rowcount : 0
106 rowcount : 0
107 rowcount : 0
108 rowcount : 0
109 rowcount : 0
110 rowcount : 0
111 rowcount : 0
112 rowcount : 0
113 rowcount : 0
114 rowcount : 0
115 rowcount : 0
116 rowcount : 0
117 rowcount : 0
118 rowcount : 0
119 rowcount : 0
120 rowcount : 0
121 rowcount : 0
122 rowcount : 0
123 rowcount : 0
124 rowcount : 0
125 rowcount : 0
126 rowcount : 0
127 rowcount : 0
128 rowcount : 0
129 rowcount : 0
130 rowcount : 0
131 rowcount : 0
132 rowcount : 0

Row_Buffer_Locality = 0.654056
Row_Buffer_Locality_read = 0.722912
Row_Buffer_Locality_write = 0.377124
Bank_Level_Parallism = 1.000000
Bank_Level_Parallism_Col = 1.000000
Bank_Level_Parallism_Ready = 1.000000
write_to_read_ratio_blp_rw_average = 0.393497
GrpLevelPara = 1.000000 

BW Util details:
bwutil = 0.151477 
total_CMD = 15330592 
util_bw = 2322237 
Wasted_Col = 5211647 
Wasted_Row = 7390783 
Idle = 405925 

BW Util Bottlenecks: 
RCDc_limit = 2580928 
RCDWRc_limit = 811413 
WTRc_limit = 0 
RTWc_limit = 0 
CCDLc_limit = 1819306 
rwq = 0 
CCDLc_limit_alone = 1819306 
WTRc_limit_alone = 0 
RTWc_limit_alone = 0 

Commands details: 
total_CMD = 15330592 
n_nop = 13666544 
Read = 582150 
Write = 0 
L2_Alloc = 0 
L2_WB = 578969 
n_act = 251465 
n_pre = 251464 
n_ref = 0 
n_req = 726957 
total_req = 1161119 
-----------------------------
issued_total_row : 502929
issued_total_col : 1161119

Dual Bus Interface Util: 
issued_total_row = 502929 
issued_total_col = 1161119 
Row_Bus_Util =  0.032806 
CoL_Bus_Util = 0.075739 
Either_Row_CoL_Bus_Util = 0.108544 
Issued_on_Two_Bus_Simul_Util = 0.000000 
issued_two_Eff = 0.000000 
queue_avg = 61.720112 


dram_util_bins: 0 0 0 0 0 0 0 0 0 0
dram_eff_bins: 0 0 0 0 0 0 0 0 0 0
mrqq: max=64 avg=61.7201

========= L2 cache stats =========
L2_cache_bank[0]: Access = 1164624, Miss = 1164294, Miss_rate = 1.000, Pending_hits = 143, Reservation_fails = 0
L2_total_cache_accesses = 1164624
L2_total_cache_misses = 1164294
L2_total_cache_miss_rate = 0.9997
L2_total_cache_pending_hits = 143
L2_total_cache_reservation_fails = 0
L2_total_cache_breakdown:
	L2_cache_stats_breakdown[GLOBAL_ACC_R][HIT] = 0
	L2_cache_stats_breakdown[GLOBAL_ACC_R][HIT_RESERVED] = 0
	L2_cache_stats_breakdown[GLOBAL_ACC_R][MISS] = 145536
	L2_cache_stats_breakdown[GLOBAL_ACC_R][RESERVATION_FAIL] = 0
	L2_cache_stats_breakdown[GLOBAL_ACC_R][SECTOR_MISS] = 436608
	L2_cache_stats_breakdown[LOCAL_ACC_R][HIT] = 0
	L2_cache_stats_breakdown[LOCAL_ACC_R][HIT_RESERVED] = 0
	L2_cache_stats_breakdown[LOCAL_ACC_R][MISS] = 0
	L2_cache_stats_breakdown[LOCAL_ACC_R][RESERVATION_FAIL] = 0
	L2_cache_stats_breakdown[LOCAL_ACC_R][SECTOR_MISS] = 0
	L2_cache_stats_breakdown[CONST_ACC_R][HIT] = 88
	L2_cache_stats_breakdown[CONST_ACC_R][HIT_RESERVED] = 22
	L2_cache_stats_breakdown[CONST_ACC_R][MISS] = 1
	L2_cache_stats_breakdown[CONST_ACC_R][RESERVATION_FAIL] = 0
	L2_cache_stats_breakdown[CONST_ACC_R][SECTOR_MISS] = 1
	L2_cache_stats_breakdown[TEXTURE_ACC_R][HIT] = 0
	L2_cache_stats_breakdown[TEXTURE_ACC_R][HIT_RESERVED] = 0
	L2_cache_stats_breakdown[TEXTURE_ACC_R][MISS] = 0
	L2_cache_stats_breakdown[TEXTURE_ACC_R][RESERVATION_FAIL] = 0
	L2_cache_stats_breakdown[TEXTURE_ACC_R][SECTOR_MISS] = 0
	L2_cache_stats_breakdown[GLOBAL_ACC_W][HIT] = 0
	L2_cache_stats_breakdown[GLOBAL_ACC_W][HIT_RESERVED] = 0
	L2_cache_stats_breakdown[GLOBAL_ACC_W][MISS] = 145536
	L2_cache_stats_breakdown[GLOBAL_ACC_W][RESERVATION_FAIL] = 0
	L2_cache_stats_breakdown[GLOBAL_ACC_W][SECTOR_MISS] = 436608
	L2_cache_stats_breakdown[LOCAL_ACC_W][HIT] = 0
	L2_cache_stats_breakdown[LOCAL_ACC_W][HIT_RESERVED] = 0
	L2_cache_stats_breakdown[LOCAL_ACC_W][MISS] = 0
	L2_cache_stats_breakdown[LOCAL_ACC_W][RESERVATION_FAIL] = 0
	L2_cache_stats_breakdown[LOCAL_ACC_W][SECTOR_MISS] = 0
	L2_cache_stats_breakdown[L1_WRBK_ACC][HIT] = 0
	L2_cache_stats_breakdown[L1_WRBK_ACC][HIT_RESERVED] = 0
	L2_cache_stats_breakdown[L1_WRBK_ACC][MISS] = 0
	L2_cache_stats_breakdown[L1_WRBK_ACC][RESERVATION_FAIL] = 0
	L2_cache_stats_breakdown[L1_WRBK_ACC][SECTOR_MISS] = 0
	L2_cache_stats_breakdown[L2_WRBK_ACC][HIT] = 0
	L2_cache_stats_breakdown[L2_WRBK_ACC][HIT_RESERVED] = 0
	L2_cache_stats_breakdown[L2_WRBK_ACC][MISS] = 0
	L2_cache_stats_breakdown[L2_WRBK_ACC][RESERVATION_FAIL] = 0
	L2_cache_stats_breakdown[L2_WRBK_ACC][SECTOR_MISS] = 0
	L2_cache_stats_breakdown[INST_ACC_R][HIT] = 99
	L2_cache_stats_breakdown[INST_ACC_R][HIT_RESERVED] = 121
	L2_cache_stats_breakdown[INST_ACC_R][MISS] = 1
	L2_cache_stats_breakdown[INST_ACC_R][RESERVATION_FAIL] = 0
	L2_cache_stats_breakdown[INST_ACC_R][SECTOR_MISS] = 3
	L2_cache_stats_breakdown[L1_WR_ALLOC_R][HIT] = 0
	L2_cache_stats_breakdown[L1_WR_ALLOC_R][HIT_RESERVED] = 0
	L2_cache_stats_breakdown[L1_WR_ALLOC_R][MISS] = 0
	L2_cache_stats_breakdown[L1_WR_ALLOC_R][RESERVATION_FAIL] = 0
	L2_cache_stats_breakdown[L1_WR_ALLOC_R][SECTOR_MISS] = 0
	L2_cache_stats_breakdown[L2_WR_ALLOC_R][HIT] = 0
	L2_cache_stats_breakdown[L2_WR_ALLOC_R][HIT_RESERVED] = 0
	L2_cache_stats_breakdown[L2_WR_ALLOC_R][MISS] = 0
	L2_cache_stats_breakdown[L2_WR_ALLOC_R][RESERVATION_FAIL] = 0
	L2_cache_stats_breakdown[L2_WR_ALLOC_R][SECTOR_MISS] = 0
	L2_cache_stats_breakdown[GLOBAL_ACC_R][TOTAL_ACCESS] = 582144
	L2_cache_stats_breakdown[CONST_ACC_R][TOTAL_ACCESS] = 112
	L2_cache_stats_breakdown[GLOBAL_ACC_W][TOTAL_ACCESS] = 582144
	L2_cache_stats_breakdown[INST_ACC_R][TOTAL_ACCESS] = 224
L2_total_cache_reservation_fail_breakdown:
L2_cache_data_port_util = 0.029
L2_cache_fill_port_util = 0.067

icnt_total_pkts_mem_to_simt=1164624
icnt_total_pkts_simt_to_mem=1164400
LD_mem_lat_dist  0 0 0 0 0 0 0 0 0 0 0 0 0 0 0 0 0 0 0 0 0 0 0 0 0 0 0
ST_mem_lat_dist  0 0 0 0 0 0 0 0 0 0 0 0 0 0 0 0 0 0 0 0 0 0 0 0 0 0 0
----------------------------Interconnect-DETAILS--------------------------------
Class 0:
Packet latency average = 25003.1
	minimum = 5
	maximum = 92731
Network latency average = 6914.92
	minimum = 5
	maximum = 35175
Slowest packet = 3615
Flit latency average = 6914.92
	minimum = 5
	maximum = 35175
Slowest flit = 199906
Fragmentation average = 0
	minimum = 0
	maximum = 0
Injected packet rate average = 0.00515444
	minimum = 0 (at node 29)
	maximum = 0.134028 (at node 28)
Accepted packet rate average = 0.00515444
	minimum = 0 (at node 29)
	maximum = 0.134003 (at node 28)
Injected flit rate average = 0.00515444
	minimum = 0 (at node 29)
	maximum = 0.134028 (at node 28)
Accepted flit rate average= 0.00515444
	minimum = 0 (at node 29)
	maximum = 0.134003 (at node 28)
Injected packet length average = 1
Accepted packet length average = 1
Total in-flight flits = 0 (0 measured)
====== Overall Traffic Statistics ======
====== Traffic class 0 ======
Packet latency average = 25003.1 (1 samples)
	minimum = 5 (1 samples)
	maximum = 92731 (1 samples)
Network latency average = 6914.92 (1 samples)
	minimum = 5 (1 samples)
	maximum = 35175 (1 samples)
Flit latency average = 6914.92 (1 samples)
	minimum = 5 (1 samples)
	maximum = 35175 (1 samples)
Fragmentation average = 0 (1 samples)
	minimum = 0 (1 samples)
	maximum = 0 (1 samples)
Injected packet rate average = 0.00515444 (1 samples)
	minimum = 0 (1 samples)
	maximum = 0.134028 (1 samples)
Accepted packet rate average = 0.00515444 (1 samples)
	minimum = 0 (1 samples)
	maximum = 0.134003 (1 samples)
Injected flit rate average = 0.00515444 (1 samples)
	minimum = 0 (1 samples)
	maximum = 0.134028 (1 samples)
Accepted flit rate average = 0.00515444 (1 samples)
	minimum = 0 (1 samples)
	maximum = 0.134003 (1 samples)
Injected packet size average = 1 (1 samples)
Accepted packet size average = 1 (1 samples)
Hops average = 1 (1 samples)
----------------------------END-of-Interconnect-DETAILS-------------------------


gpgpu_simulation_time = 0 days, 3 hrs, 36 min, 20 sec (12980 sec)
gpgpu_simulation_rate = 5023 (inst/sec)
gpgpu_simulation_rate = 669 (cycle/sec)
count : 67108864 dst_start_addr : 0xc0000000
,output : 2 2 2GPGPU-Sim: *** exit detected ***
