

        *** GPGPU-Sim Simulator Version 4.0.0  [build gpgpu-sim_git-commit-e5322e7bbe2c884b62aaecad0f854251c2187ba6_modified_5] ***


GPGPU-Sim PTX: simulation mode 0 (can change with PTX_SIM_MODE_FUNC environment variable:
               1=functional simulation only, 0=detailed performance simulator)
GPGPU-Sim PTX: overriding embedded ptx with ptx file (PTX_SIM_USE_PTX_FILE is set)
GPGPU-Sim: Configuration options:

-network_mode                           1 # Interconnection network mode
-inter_config_file   config_fermi_islip.icnt # Interconnection network config file
-gpgpu_ptx_use_cuobjdump                    1 # Use cuobjdump to extract ptx and sass from binaries
-gpgpu_experimental_lib_support                    0 # Try to extract code from cuda libraries [Broken because of unknown cudaGetExportTable]
-checkpoint_option                      0 #  checkpointing flag (0 = no checkpoint)
-checkpoint_kernel                      1 #  checkpointing during execution of which kernel (1- 1st kernel)
-checkpoint_CTA                         0 #  checkpointing after # of CTA (< less than total CTA)
-resume_option                          0 #  resume flag (0 = no resume)
-resume_kernel                          0 #  Resume from which kernel (1= 1st kernel)
-resume_CTA                             0 #  resume from which CTA 
-checkpoint_CTA_t                       0 #  resume from which CTA 
-checkpoint_insn_Y                      0 #  resume from which CTA 
-gpgpu_ptx_convert_to_ptxplus                    0 # Convert SASS (native ISA) to ptxplus and run ptxplus
-gpgpu_ptx_force_max_capability                   61 # Force maximum compute capability
-gpgpu_ptx_inst_debug_to_file                    0 # Dump executed instructions' debug information to file
-gpgpu_ptx_inst_debug_file       inst_debug.txt # Executed instructions' debug output file
-gpgpu_ptx_inst_debug_thread_uid                    1 # Thread UID for executed instructions' debug output
-gpgpu_simd_model                       1 # 1 = post-dominator
-gpgpu_shader_core_pipeline              1024:32 # shader core pipeline config, i.e., {<nthread>:<warpsize>}
-gpgpu_tex_cache:l1  N:16:128:24,L:R:m:N:L,T:128:4,128:2 # per-shader L1 texture cache  (READ-ONLY) config  {<nsets>:<bsize>:<assoc>,<rep>:<wr>:<alloc>:<wr_alloc>,<mshr>:<N>:<merge>,<mq>:<rf>}
-gpgpu_const_cache:l1 N:128:64:2,L:R:f:N:L,S:2:64,4 # per-shader L1 constant memory cache  (READ-ONLY) config  {<nsets>:<bsize>:<assoc>,<rep>:<wr>:<alloc>:<wr_alloc>,<mshr>:<N>:<merge>,<mq>} 
-gpgpu_cache:il1     N:8:128:4,L:R:f:N:L,S:2:48,4 # shader L1 instruction cache config  {<nsets>:<bsize>:<assoc>,<rep>:<wr>:<alloc>:<wr_alloc>,<mshr>:<N>:<merge>,<mq>} 
-gpgpu_cache:dl1     S:4:128:48,L:L:s:N:L,A:256:8,16:0,32 # per-shader L1 data cache config  {<nsets>:<bsize>:<assoc>,<rep>:<wr>:<alloc>:<wr_alloc>,<mshr>:<N>:<merge>,<mq> | none}
-l1_latency                            82 # L1 Hit Latency
-smem_latency                          24 # smem Latency
-gpgpu_cache:dl1PrefL1 S:4:128:48,L:L:s:N:L,A:256:8,16:0,32 # per-shader L1 data cache config  {<nsets>:<bsize>:<assoc>,<rep>:<wr>:<alloc>:<wr_alloc>,<mshr>:<N>:<merge>,<mq> | none}
-gpgpu_cache:dl1PrefShared S:4:128:48,L:L:s:N:L,A:256:8,16:0,32 # per-shader L1 data cache config  {<nsets>:<bsize>:<assoc>,<rep>:<wr>:<alloc>:<wr_alloc>,<mshr>:<N>:<merge>,<mq> | none}
-gmem_skip_L1D                          1 # global memory access skip L1D cache (implements -Xptxas -dlcm=cg, default=no skip)
-gpgpu_perfect_mem                      0 # enable perfect memory mode (no cache miss)
-n_regfile_gating_group                    4 # group of lanes that should be read/written together)
-gpgpu_clock_gated_reg_file                    0 # enable clock gated reg file for power calculations
-gpgpu_clock_gated_lanes                    0 # enable clock gated lanes for power calculations
-gpgpu_shader_registers                32768 # Number of registers per shader core. Limits number of concurrent CTAs. (default 8192)
-gpgpu_registers_per_block                 8192 # Maximum number of registers per CTA. (default 8192)
-gpgpu_ignore_resources_limitation                    1 # gpgpu_ignore_resources_limitation (default 0)
-gpgpu_shader_cta                      16 # Maximum number of concurrent CTAs in shader (default 8)
-gpgpu_num_cta_barriers                   16 # Maximum number of named barriers per CTA (default 16)
-gpgpu_n_clusters                      28 # number of processing clusters
-gpgpu_n_cores_per_cluster                    2 # number of simd cores per cluster
-gpgpu_n_cluster_ejection_buffer_size                   32 # number of packets in ejection buffer
-gpgpu_n_ldst_response_buffer_size                    2 # number of response packets in ld/st unit ejection buffer
-gpgpu_shmem_per_block                49152 # Size of shared memory per thread block or CTA (default 48kB)
-gpgpu_shmem_size                   16384 # Size of shared memory per shader core (default 16kB)
-adpative_volta_cache_config                    0 # adpative_volta_cache_config
-gpgpu_shmem_size                   49152 # Size of shared memory per shader core (default 16kB)
-gpgpu_shmem_size_PrefL1                49152 # Size of shared memory per shader core (default 16kB)
-gpgpu_shmem_size_PrefShared                49152 # Size of shared memory per shader core (default 16kB)
-gpgpu_shmem_num_banks                   32 # Number of banks in the shared memory in each shader core (default 16)
-gpgpu_shmem_limited_broadcast                    0 # Limit shared memory to do one broadcast per cycle (default on)
-gpgpu_shmem_warp_parts                    1 # Number of portions a warp is divided into for shared memory bank conflict check 
-mem_unit_ports                         1 # The number of memory transactions allowed per core cycle
-gpgpu_shmem_warp_parts                    1 # Number of portions a warp is divided into for shared memory bank conflict check 
-gpgpu_warpdistro_shader                   -1 # Specify which shader core to collect the warp size distribution from
-gpgpu_warp_issue_shader                    0 # Specify which shader core to collect the warp issue distribution from
-gpgpu_local_mem_map                    1 # Mapping from local memory space address to simulated GPU physical address space (default = enabled)
-gpgpu_num_reg_banks                   32 # Number of register banks (default = 8)
-gpgpu_reg_bank_use_warp_id                    0 # Use warp ID in mapping registers to banks (default = off)
-sub_core_model                         0 # Sub Core Volta/Pascal model (default = off)
-enable_specialized_operand_collector                    1 # enable_specialized_operand_collector
-gpgpu_operand_collector_num_units_sp                   12 # number of collector units (default = 4)
-gpgpu_operand_collector_num_units_dp                    6 # number of collector units (default = 0)
-gpgpu_operand_collector_num_units_sfu                    6 # number of collector units (default = 4)
-gpgpu_operand_collector_num_units_int                    0 # number of collector units (default = 0)
-gpgpu_operand_collector_num_units_tensor_core                    4 # number of collector units (default = 4)
-gpgpu_operand_collector_num_units_mem                    8 # number of collector units (default = 2)
-gpgpu_operand_collector_num_units_gen                    0 # number of collector units (default = 0)
-gpgpu_operand_collector_num_in_ports_sp                    2 # number of collector unit in ports (default = 1)
-gpgpu_operand_collector_num_in_ports_dp                    1 # number of collector unit in ports (default = 0)
-gpgpu_operand_collector_num_in_ports_sfu                    2 # number of collector unit in ports (default = 1)
-gpgpu_operand_collector_num_in_ports_int                    0 # number of collector unit in ports (default = 0)
-gpgpu_operand_collector_num_in_ports_tensor_core                    1 # number of collector unit in ports (default = 1)
-gpgpu_operand_collector_num_in_ports_mem                    1 # number of collector unit in ports (default = 1)
-gpgpu_operand_collector_num_in_ports_gen                    0 # number of collector unit in ports (default = 0)
-gpgpu_operand_collector_num_out_ports_sp                    2 # number of collector unit in ports (default = 1)
-gpgpu_operand_collector_num_out_ports_dp                    1 # number of collector unit in ports (default = 0)
-gpgpu_operand_collector_num_out_ports_sfu                    2 # number of collector unit in ports (default = 1)
-gpgpu_operand_collector_num_out_ports_int                    0 # number of collector unit in ports (default = 0)
-gpgpu_operand_collector_num_out_ports_tensor_core                    1 # number of collector unit in ports (default = 1)
-gpgpu_operand_collector_num_out_ports_mem                    1 # number of collector unit in ports (default = 1)
-gpgpu_operand_collector_num_out_ports_gen                    0 # number of collector unit in ports (default = 0)
-gpgpu_coalesce_arch                   61 # Coalescing arch (GT200 = 13, Fermi = 20)
-gpgpu_num_sched_per_core                    2 # Number of warp schedulers per core
-gpgpu_max_insn_issue_per_warp                    2 # Max number of instructions that can be issued per warp in one cycle by scheduler (either 1 or 2)
-gpgpu_dual_issue_diff_exec_units                    1 # should dual issue use two different execution unit resources (Default = 1)
-gpgpu_simt_core_sim_order                    1 # Select the simulation order of cores in a cluster (0=Fix, 1=Round-Robin)
-gpgpu_pipeline_widths 2,1,0,2,1,2,1,0,2,1,5 # Pipeline widths ID_OC_SP,ID_OC_DP,ID_OC_INT,ID_OC_SFU,ID_OC_MEM,OC_EX_SP,OC_EX_DP,OC_EX_INT,OC_EX_SFU,OC_EX_MEM,EX_WB,ID_OC_TENSOR_CORE,OC_EX_TENSOR_CORE
-gpgpu_tensor_core_avail                    0 # Tensor Core Available (default=0)
-gpgpu_num_sp_units                     2 # Number of SP units (default=1)
-gpgpu_num_dp_units                     1 # Number of DP units (default=0)
-gpgpu_num_int_units                    0 # Number of INT units (default=0)
-gpgpu_num_sfu_units                    2 # Number of SF units (default=1)
-gpgpu_num_tensor_core_units                    1 # Number of tensor_core units (default=1)
-gpgpu_num_mem_units                    1 # Number if ldst units (default=1) WARNING: not hooked up to anything
-gpgpu_scheduler                      gto # Scheduler configuration: < lrr | gto | two_level_active > If two_level_active:<num_active_warps>:<inner_prioritization>:<outer_prioritization>For complete list of prioritization values see shader.h enum scheduler_prioritization_typeDefault: gto
-gpgpu_concurrent_kernel_sm                    0 # Support concurrent kernels on a SM (default = disabled)
-perf_sim_memcpy                        1 # Fill the L2 cache on memcpy
-gpgpu_dram_scheduler                    1 # 0 = fifo, 1 = FR-FCFS (defaul)
-gpgpu_dram_partition_queues          32:32:32:32 # i2$:$2d:d2$:$2i
-l2_ideal                               0 # Use a ideal L2 cache that always hit
-gpgpu_cache:dl2     S:64:128:16,L:B:m:L:L,A:256:64,16:0,32 # unified banked L2 data cache config  {<nsets>:<bsize>:<assoc>,<rep>:<wr>:<alloc>:<wr_alloc>,<mshr>:<N>:<merge>,<mq>}
-gpgpu_cache:dl2_texture_only                    0 # L2 cache used for texture only
-gpgpu_n_mem                           12 # number of memory modules (e.g. memory controllers) in gpu
-gpgpu_n_sub_partition_per_mchannel                    2 # number of memory subpartition in each memory module
-gpgpu_n_mem_per_ctrlr                    1 # number of memory chips per memory controller
-gpgpu_memlatency_stat                   14 # track and display latency statistics 0x2 enables MC, 0x4 enables queue logs
-gpgpu_frfcfs_dram_sched_queue_size                   64 # 0 = unlimited (default); # entries per chip
-gpgpu_dram_return_queue_size                   64 # 0 = unlimited (default); # entries per chip
-gpgpu_dram_buswidth                    4 # default = 4 bytes (8 bytes per cycle at DDR)
-gpgpu_dram_burst_length                    8 # Burst length of each DRAM request (default = 4 data bus cycle)
-dram_data_command_freq_ratio                    4 # Frequency ratio between DRAM data bus and command bus (default = 2 times, i.e. DDR)
-gpgpu_dram_timing_opt nbk=16:CCD=2:RRD=8:RCD=16:RAS=37:RP=16:RC=52: CL=16:WL=6:CDLR=7:WR=16:nbkgrp=4:CCDL=4:RTPL=3 # DRAM timing parameters = {nbk:tCCD:tRRD:tRCD:tRAS:tRP:tRC:CL:WL:tCDLR:tWR:nbkgrp:tCCDL:tRTPL}
-rop_latency                          120 # ROP queue latency (default 85)
-dram_latency                         100 # DRAM latency (default 30)
-dual_bus_interface                     0 # dual_bus_interface (default = 0) 
-dram_bnk_indexing_policy                    0 # dram_bnk_indexing_policy (0 = normal indexing, 1 = Xoring with the higher bits) (Default = 0)
-dram_bnkgrp_indexing_policy                    1 # dram_bnkgrp_indexing_policy (0 = take higher bits, 1 = take lower bits) (Default = 0)
-Seperate_Write_Queue_Enable                    0 # Seperate_Write_Queue_Enable
-Write_Queue_Size                32:28:16 # Write_Queue_Size
-Elimnate_rw_turnaround                    0 # elimnate_rw_turnaround i.e set tWTR and tRTW = 0
-icnt_flit_size                        40 # icnt_flit_size
-gpgpu_mem_addr_mapping dramid@8;00000000.00000000.00000000.00000000.0000RRRR.RRRRRRRR.RBBBCCCC.BCCSSSSS # mapping memory address to dram model {dramid@<start bit>;<memory address map>}
-gpgpu_mem_addr_test                    0 # run sweep test to check address mapping for aliased address
-gpgpu_mem_address_mask                    1 # 0 = old addressing mask, 1 = new addressing mask, 2 = new add. mask + flipped bank sel and chip sel bits
-memory_partition_indexing                    0 # 0 = no indexing, 1 = bitwise xoring, 2 = IPoly, 3 = custom indexing
-gpuwattch_xml_file         gpuwattch.xml # GPUWattch XML file
-power_simulation_enabled                    0 # Turn on power simulator (1=On, 0=Off)
-power_per_cycle_dump                    0 # Dump detailed power output each cycle
-power_trace_enabled                    0 # produce a file for the power trace (1=On, 0=Off)
-power_trace_zlevel                     6 # Compression level of the power trace output log (0=no comp, 9=highest)
-steady_power_levels_enabled                    0 # produce a file for the steady power levels (1=On, 0=Off)
-steady_state_definition                  8:4 # allowed deviation:number of samples
-gpgpu_max_cycle                        0 # terminates gpu simulation early (0 = no limit)
-gpgpu_max_insn                         0 # terminates gpu simulation early (0 = no limit)
-gpgpu_max_cta                          0 # terminates gpu simulation early (0 = no limit)
-gpgpu_runtime_stat                   500 # display runtime statistics such as dram utilization {<freq>:<flag>}
-liveness_message_freq                    1 # Minimum number of seconds between simulation liveness messages (0 = always print)
-gpgpu_flush_l1_cache                    1 # Flush L1 cache at the end of each kernel call
-gpgpu_flush_l2_cache                    0 # Flush L2 cache at the end of each kernel call
-gpgpu_deadlock_detect                    1 # Stop the simulation at deadlock (1=on (default), 0=off)
-gpgpu_ptx_instruction_classification                    0 # if enabled will classify ptx instruction types per kernel (Max 255 kernels now)
-gpgpu_ptx_sim_mode                     0 # Select between Performance (default) or Functional simulation (1)
-gpgpu_clock_domains 1417.0:1417.0:1417.0:2500.0 # Clock Domain Frequencies in MhZ {<Core Clock>:<ICNT Clock>:<L2 Clock>:<DRAM Clock>}
-gpgpu_max_concurrent_kernel                    8 # maximum kernels that can run concurrently on GPU
-gpgpu_cflog_interval                    0 # Interval between each snapshot in control flow logger
-visualizer_enabled                     0 # Turn on visualizer output (1=On, 0=Off)
-visualizer_outputfile                 NULL # Specifies the output log file for visualizer
-visualizer_zlevel                      6 # Compression level of the visualizer output log (0=no comp, 9=highest)
-trace_enabled                          0 # Turn on traces
-trace_components                    none # comma seperated list of traces to enable. Complete list found in trace_streams.tup. Default none
-trace_sampling_core                    0 # The core which is printed using CORE_DPRINTF. Default 0
-trace_sampling_memory_partition                   -1 # The memory partition which is printed using MEMPART_DPRINTF. Default -1 (i.e. all)
-enable_ptx_file_line_stats                    1 # Turn on PTX source line statistic profiling. (1 = On)
-ptx_line_stats_filename gpgpu_inst_stats.txt # Output file for PTX source line statistics.
-gpgpu_kernel_launch_latency                    0 # Kernel launch latency in cycles. Default: 0
-gpgpu_cdp_enabled                      0 # Turn on CDP
-save_embedded_ptx                      0 # saves ptx files embedded in binary as <n>.ptx
-keep                                   0 # keep intermediate files created by GPGPU-Sim when interfacing with external programs
-gpgpu_ptx_save_converted_ptxplus                    0 # Saved converted ptxplus to a file
-gpgpu_occupancy_sm_number                   62 # The SM number to pass to ptxas when getting register usage for computing GPU occupancy. This parameter is required in the config.
-ptx_opcode_latency_int         4,13,4,5,145 # Opcode latencies for integers <ADD,MAX,MUL,MAD,DIV>Default 1,1,19,25,145
-ptx_opcode_latency_fp          4,13,4,5,39 # Opcode latencies for single precision floating points <ADD,MAX,MUL,MAD,DIV>Default 1,1,1,1,30
-ptx_opcode_latency_dp         8,19,8,8,330 # Opcode latencies for double precision floating points <ADD,MAX,MUL,MAD,DIV>Default 8,8,8,8,335
-ptx_opcode_latency_sfu                    8 # Opcode latencies for SFU instructionsDefault 8
-ptx_opcode_latency_tesnor                   64 # Opcode latencies for Tensor instructionsDefault 64
-ptx_opcode_initiation_int            1,1,1,1,4 # Opcode initiation intervals for integers <ADD,MAX,MUL,MAD,DIV>Default 1,1,4,4,32
-ptx_opcode_initiation_fp            1,2,1,1,4 # Opcode initiation intervals for single precision floating points <ADD,MAX,MUL,MAD,DIV>Default 1,1,1,1,5
-ptx_opcode_initiation_dp          8,8,8,8,130 # Opcode initiation intervals for double precision floating points <ADD,MAX,MUL,MAD,DIV>Default 8,8,8,8,130
-ptx_opcode_initiation_sfu                    4 # Opcode initiation intervals for sfu instructionsDefault 8
-ptx_opcode_initiation_tensor                   64 # Opcode initiation intervals for tensor instructionsDefault 64
-cdp_latency         7200,8000,100,12000,1600 # CDP API latency <cudaStreamCreateWithFlags, cudaGetParameterBufferV2_init_perWarp, cudaGetParameterBufferV2_perKernel, cudaLaunchDeviceV2_init_perWarp, cudaLaunchDevicV2_perKernel>Default 7200,8000,100,12000,1600
DRAM Timing Options:
nbk                                    16 # number of banks
CCD                                     2 # column to column delay
RRD                                     8 # minimal delay between activation of rows in different banks
RCD                                    16 # row to column delay
RAS                                    37 # time needed to activate row
RP                                     16 # time needed to precharge (deactivate) row
RC                                     52 # row cycle time
CDLR                                    7 # switching from write to read (changes tWTR)
WR                                     16 # last data-in to row precharge
CL                                     16 # CAS latency
WL                                      6 # Write latency
nbkgrp                                  4 # number of bank groups
CCDL                                    4 # column to column delay between accesses to different bank groups
RTPL                                    3 # read to precharge delay between accesses to different bank groups
Total number of memory sub partition = 24
addr_dec_mask[CHIP]  = 0000000000000000 	high:64 low:0
addr_dec_mask[BK]    = 0000000000007080 	high:15 low:7
addr_dec_mask[ROW]   = 000000000fff8000 	high:28 low:15
addr_dec_mask[COL]   = 0000000000000f7f 	high:12 low:0
addr_dec_mask[BURST] = 000000000000001f 	high:5 low:0
sub_partition_id_mask = 0000000000000080
GPGPU-Sim uArch: clock freqs: 1417000000.000000:1417000000.000000:1417000000.000000:2500000000.000000
GPGPU-Sim uArch: clock periods: 0.00000000070571630205:0.00000000070571630205:0.00000000070571630205:0.00000000040000000000
*** Initializing Memory Statistics ***
GPGPU-Sim uArch: interconnect node map (shaderID+MemID to icntID)
GPGPU-Sim uArch: Memory nodes ID start from index: 28
GPGPU-Sim uArch:    0   1   2   3   4   5   6
GPGPU-Sim uArch:    7   8   9  10  11  12  13
GPGPU-Sim uArch:   14  15  16  17  18  19  20
GPGPU-Sim uArch:   21  22  23  24  25  26  27
GPGPU-Sim uArch:   28  29  30  31  32  33  34
GPGPU-Sim uArch:   35  36  37  38  39  40  41
GPGPU-Sim uArch:   42  43  44  45  46  47  48
GPGPU-Sim uArch:   49  50  51
GPGPU-Sim uArch: interconnect node reverse map (icntID to shaderID+MemID)
GPGPU-Sim uArch: Memory nodes start from ID: 28
GPGPU-Sim uArch:    0   1   2   3   4   5   6
GPGPU-Sim uArch:    7   8   9  10  11  12  13
GPGPU-Sim uArch:   14  15  16  17  18  19  20
GPGPU-Sim uArch:   21  22  23  24  25  26  27
GPGPU-Sim uArch:   28  29  30  31  32  33  34
GPGPU-Sim uArch:   35  36  37  38  39  40  41
GPGPU-Sim uArch:   42  43  44  45  46  47  48
GPGPU-Sim uArch:   49  50  51
995daac4b9e8424dba9af13ad6143ad8  /1502434/example
Extracting PTX file and ptxas options    1: example.1.sm_20.ptx -arch=sm_20
GPGPU-Sim uArch: performance model initialization complete.
self exe links to: /1502434/example
self exe links to: /1502434/example
8.0
GPGPU-Sim PTX: __cudaRegisterFatBinary, fat_cubin_handle = 1, filename=default
self exe links to: /1502434/example
Running md5sum using "md5sum /1502434/example "
self exe links to: /1502434/example
Extracting specific PTX file named example.1.sm_20.ptx 
GPGPU-Sim PTX: __cudaRegisterFunction _Z3addPiS_ : hostFun 0x0x400d94, fat_cubin_handle = 1
GPGPU-Sim PTX: Parsing example.1.sm_20.ptx
GPGPU-Sim PTX: instruction assembly for function '_Z3addPiS_'...   done.
GPGPU-Sim PTX: finished parsing EMBEDDED .ptx file example.1.sm_20.ptx
GPGPU-Sim PTX: loading globals with explicit initializers... 
GPGPU-Sim PTX: finished loading globals (0 bytes total).
GPGPU-Sim PTX: loading constants with explicit initializers...  done.
GPGPU-Sim PTX: Loading PTXInfo from example.1.sm_20.ptx
GPGPU-Sim PTX: Kernel '_Z3addPiS_' : regs=6, lmem=0, smem=0, cmem=48
count : 4000 dst_start_addr : 0xc0000000
,GPGPU-Sim PTX: Setting up arguments for 8 bytes starting at 0x7ffd9a12d698..
GPGPU-Sim PTX: Setting up arguments for 8 bytes starting at 0x7ffd9a12d690..

GPGPU-Sim PTX: cudaLaunch for 0x0x400d94 (mode=performance simulation) on stream 0
GPGPU-Sim PTX: finding reconvergence points for '_Z3addPiS_'...
GPGPU-Sim PTX: Finding dominators for '_Z3addPiS_'...
GPGPU-Sim PTX: Finding immediate dominators for '_Z3addPiS_'...
GPGPU-Sim PTX: Finding postdominators for '_Z3addPiS_'...
GPGPU-Sim PTX: Finding immediate postdominators for '_Z3addPiS_'...
GPGPU-Sim PTX: pre-decoding instructions for '_Z3addPiS_'...
GPGPU-Sim PTX: reconvergence points for _Z3addPiS_...
GPGPU-Sim PTX:  1 (potential) branch divergence @  PC=0x020 (example.1.sm_20.ptx:29) @%p1 bra BB0_2;
GPGPU-Sim PTX:    immediate post dominator      @  PC=0x068 (example.1.sm_20.ptx:41) ret;
GPGPU-Sim PTX: ... end of reconvergence points for _Z3addPiS_
GPGPU-Sim PTX: ... done pre-decoding instructions for '_Z3addPiS_'.
GPGPU-Sim PTX: pushing kernel '_Z3addPiS_' to stream 0, gridDim= (1000,1,1) blockDim = (1,1,1) 
GPGPU-Sim uArch: Shader 0 bind to kernel 1 '_Z3addPiS_'
GPGPU-Sim uArch: CTA/core = 16, limited by: cta_limit
GPGPU-Sim uArch: Shader 2 bind to kernel 1 '_Z3addPiS_'
GPGPU-Sim uArch: Shader 4 bind to kernel 1 '_Z3addPiS_'
GPGPU-Sim uArch: Shader 6 bind to kernel 1 '_Z3addPiS_'
GPGPU-Sim uArch: Shader 8 bind to kernel 1 '_Z3addPiS_'
GPGPU-Sim uArch: Shader 10 bind to kernel 1 '_Z3addPiS_'
GPGPU-Sim uArch: Shader 12 bind to kernel 1 '_Z3addPiS_'
GPGPU-Sim uArch: Shader 14 bind to kernel 1 '_Z3addPiS_'
GPGPU-Sim uArch: Shader 16 bind to kernel 1 '_Z3addPiS_'
GPGPU-Sim uArch: Shader 18 bind to kernel 1 '_Z3addPiS_'
GPGPU-Sim uArch: Shader 20 bind to kernel 1 '_Z3addPiS_'
GPGPU-Sim uArch: Shader 22 bind to kernel 1 '_Z3addPiS_'
GPGPU-Sim uArch: Shader 24 bind to kernel 1 '_Z3addPiS_'
GPGPU-Sim uArch: Shader 26 bind to kernel 1 '_Z3addPiS_'
GPGPU-Sim uArch: Shader 28 bind to kernel 1 '_Z3addPiS_'
GPGPU-Sim uArch: Shader 30 bind to kernel 1 '_Z3addPiS_'
GPGPU-Sim uArch: Shader 32 bind to kernel 1 '_Z3addPiS_'
GPGPU-Sim uArch: Shader 34 bind to kernel 1 '_Z3addPiS_'
GPGPU-Sim uArch: Shader 36 bind to kernel 1 '_Z3addPiS_'
GPGPU-Sim uArch: Shader 38 bind to kernel 1 '_Z3addPiS_'
GPGPU-Sim uArch: Shader 40 bind to kernel 1 '_Z3addPiS_'
GPGPU-Sim uArch: Shader 42 bind to kernel 1 '_Z3addPiS_'
GPGPU-Sim uArch: Shader 44 bind to kernel 1 '_Z3addPiS_'
GPGPU-Sim uArch: Shader 46 bind to kernel 1 '_Z3addPiS_'
GPGPU-Sim uArch: Shader 48 bind to kernel 1 '_Z3addPiS_'
GPGPU-Sim uArch: Shader 50 bind to kernel 1 '_Z3addPiS_'
GPGPU-Sim uArch: Shader 52 bind to kernel 1 '_Z3addPiS_'
GPGPU-Sim uArch: Shader 54 bind to kernel 1 '_Z3addPiS_'
GPGPU-Sim uArch: Shader 1 bind to kernel 1 '_Z3addPiS_'
GPGPU-Sim uArch: Shader 3 bind to kernel 1 '_Z3addPiS_'
GPGPU-Sim uArch: Shader 5 bind to kernel 1 '_Z3addPiS_'
GPGPU-Sim uArch: Shader 7 bind to kernel 1 '_Z3addPiS_'
GPGPU-Sim uArch: Shader 9 bind to kernel 1 '_Z3addPiS_'
GPGPU-Sim uArch: Shader 11 bind to kernel 1 '_Z3addPiS_'
GPGPU-Sim uArch: Shader 13 bind to kernel 1 '_Z3addPiS_'
GPGPU-Sim uArch: Shader 15 bind to kernel 1 '_Z3addPiS_'
GPGPU-Sim uArch: Shader 17 bind to kernel 1 '_Z3addPiS_'
GPGPU-Sim uArch: Shader 19 bind to kernel 1 '_Z3addPiS_'
GPGPU-Sim uArch: Shader 21 bind to kernel 1 '_Z3addPiS_'
GPGPU-Sim uArch: Shader 23 bind to kernel 1 '_Z3addPiS_'
GPGPU-Sim uArch: Shader 25 bind to kernel 1 '_Z3addPiS_'
GPGPU-Sim uArch: Shader 27 bind to kernel 1 '_Z3addPiS_'
GPGPU-Sim uArch: Shader 29 bind to kernel 1 '_Z3addPiS_'
GPGPU-Sim uArch: Shader 31 bind to kernel 1 '_Z3addPiS_'
GPGPU-Sim uArch: Shader 33 bind to kernel 1 '_Z3addPiS_'
GPGPU-Sim uArch: Shader 35 bind to kernel 1 '_Z3addPiS_'
GPGPU-Sim uArch: Shader 37 bind to kernel 1 '_Z3addPiS_'
GPGPU-Sim uArch: Shader 39 bind to kernel 1 '_Z3addPiS_'
GPGPU-Sim uArch: Shader 41 bind to kernel 1 '_Z3addPiS_'
GPGPU-Sim uArch: Shader 43 bind to kernel 1 '_Z3addPiS_'
GPGPU-Sim uArch: Shader 45 bind to kernel 1 '_Z3addPiS_'
GPGPU-Sim uArch: Shader 47 bind to kernel 1 '_Z3addPiS_'
GPGPU-Sim uArch: Shader 49 bind to kernel 1 '_Z3addPiS_'
GPGPU-Sim uArch: Shader 51 bind to kernel 1 '_Z3addPiS_'
GPGPU-Sim uArch: Shader 53 bind to kernel 1 '_Z3addPiS_'
GPGPU-Sim uArch: Shader 55 bind to kernel 1 '_Z3addPiS_'
push called
bk[0]->cur_row : 0
issue row command in IDLE 0 
bk[0]->cur_row : 2048
push called
bk[0]->cur_row : 2048
bk[0]->cur_row : 2048
push called
bk[0]->cur_row : 2048
bk[0]->cur_row : 2048
push called
bk[0]->cur_row : 2048
bk[0]->cur_row : 2048
bk[0]->cur_row : 2048
bk[0]->cur_row : 2048
bk[0]->cur_row : 2048
bk[0]->cur_row : 2048
bk[0]->cur_row : 2048
bk[0]->cur_row : 2048
bk[0]->cur_row : 2048
bk[0]->cur_row : 2048
bk[0]->cur_row : 2048
bk[0]->cur_row : 2048
bk[0]->cur_row : 2048
bk[0]->cur_row : 2048
bk[0]->cur_row : 2048
bk[0]->cur_row : 2048
bk[0]->cur_row : 2048
bk[0]->cur_row : 2048
bk[0]->cur_row : 2048
push called
bk[0]->cur_row : 2048
issue row command in ACTIVE 0 
bk[0]->cur_row : 2048
push called
bk[0]->cur_row : 2048
bk[0]->cur_row : 2048
bk[0]->cur_row : 2048
bk[0]->cur_row : 2048
bk[0]->cur_row : 2048
bk[0]->cur_row : 2048
bk[0]->cur_row : 2048
bk[0]->cur_row : 2048
bk[0]->cur_row : 2048
bk[0]->cur_row : 2048
bk[0]->cur_row : 2048
bk[0]->cur_row : 2048
bk[0]->cur_row : 2048
bk[0]->cur_row : 2048
bk[0]->cur_row : 2048
issue row command in IDLE 0 
bk[0]->cur_row : 0
bk[0]->cur_row : 0
bk[0]->cur_row : 0
bk[0]->cur_row : 0
bk[0]->cur_row : 0
bk[0]->cur_row : 0
bk[0]->cur_row : 0
bk[0]->cur_row : 0
bk[0]->cur_row : 0
bk[0]->cur_row : 0
bk[0]->cur_row : 0
bk[0]->cur_row : 0
bk[0]->cur_row : 0
bk[0]->cur_row : 0
bk[0]->cur_row : 0
bk[0]->cur_row : 0
bk[0]->cur_row : 0
bk[0]->cur_row : 0
Destroy streams for kernel 1: size 0
kernel_name = _Z3addPiS_ 
kernel_launch_uid = 1 
gpu_sim_cycle = 1335
gpu_sim_insn = 13000
gpu_ipc =       9.7378
gpu_tot_sim_cycle = 1335
gpu_tot_sim_insn = 13000
gpu_tot_ipc =       9.7378
gpu_tot_issued_cta = 1000
gpu_occupancy = 46.2313% 
gpu_tot_occupancy = 46.2313% 
max_total_param_size = 0
gpu_stall_dramfull = 107
gpu_stall_icnt2sh    = 0
partiton_level_parallism =       1.5820
0 memory options : cmd : 2354
nop :  2345
act :  2
pre :  1
rd :  6
wr :  0
 req : 6
1 memory options : cmd : 2354
nop :  2354
act :  0
pre :  0
rd :  0
wr :  0
 req : 0
2 memory options : cmd : 2354
nop :  2354
act :  0
pre :  0
rd :  0
wr :  0
 req : 0
3 memory options : cmd : 2354
nop :  2354
act :  0
pre :  0
rd :  0
wr :  0
 req : 0
4 memory options : cmd : 2354
nop :  2354
act :  0
pre :  0
rd :  0
wr :  0
 req : 0
5 memory options : cmd : 2354
nop :  2354
act :  0
pre :  0
rd :  0
wr :  0
 req : 0
6 memory options : cmd : 2354
nop :  2354
act :  0
pre :  0
rd :  0
wr :  0
 req : 0
7 memory options : cmd : 2354
nop :  2354
act :  0
pre :  0
rd :  0
wr :  0
 req : 0
8 memory options : cmd : 2354
nop :  2354
act :  0
pre :  0
rd :  0
wr :  0
 req : 0
9 memory options : cmd : 2354
nop :  2354
act :  0
pre :  0
rd :  0
wr :  0
 req : 0
10 memory options : cmd : 2354
nop :  2354
act :  0
pre :  0
rd :  0
wr :  0
 req : 0
11 memory options : cmd : 2354
nop :  2354
act :  0
pre :  0
rd :  0
wr :  0
 req : 0
gpgpu_n_dram_reads = 6
gpgpu_n_dram_writes = 0
gpgpu_n_dram_activate = 2
gpgpu_n_dram_commands = 28248
gpgpu_n_dram_noops = 28239
gpgpu_n_dram_precharges = 1
gpgpu_n_dram_requests = 6
partiton_level_parallism_total  =       1.5820
partiton_level_parallism_util =       4.1331
partiton_level_parallism_util_total  =       4.1331
L2_BW  =      79.3435 GB/Sec
L2_BW_total  =      79.3435 GB/Sec
gpu_total_sim_rate=6500

========= Core cache stats =========
L1I_cache:
	L1I_total_cache_accesses = 7000
	L1I_total_cache_misses = 896
	L1I_total_cache_miss_rate = 0.1280
	L1I_total_cache_pending_hits = 0
	L1I_total_cache_reservation_fails = 0
L1D_cache:
	L1D_cache_core[0]: Access = 0, Miss = 0, Miss_rate = -nan, Pending_hits = 0, Reservation_fails = 0
	L1D_cache_core[1]: Access = 0, Miss = 0, Miss_rate = -nan, Pending_hits = 0, Reservation_fails = 0
	L1D_cache_core[2]: Access = 0, Miss = 0, Miss_rate = -nan, Pending_hits = 0, Reservation_fails = 0
	L1D_cache_core[3]: Access = 0, Miss = 0, Miss_rate = -nan, Pending_hits = 0, Reservation_fails = 0
	L1D_cache_core[4]: Access = 0, Miss = 0, Miss_rate = -nan, Pending_hits = 0, Reservation_fails = 0
	L1D_cache_core[5]: Access = 0, Miss = 0, Miss_rate = -nan, Pending_hits = 0, Reservation_fails = 0
	L1D_cache_core[6]: Access = 0, Miss = 0, Miss_rate = -nan, Pending_hits = 0, Reservation_fails = 0
	L1D_cache_core[7]: Access = 0, Miss = 0, Miss_rate = -nan, Pending_hits = 0, Reservation_fails = 0
	L1D_cache_core[8]: Access = 0, Miss = 0, Miss_rate = -nan, Pending_hits = 0, Reservation_fails = 0
	L1D_cache_core[9]: Access = 0, Miss = 0, Miss_rate = -nan, Pending_hits = 0, Reservation_fails = 0
	L1D_cache_core[10]: Access = 0, Miss = 0, Miss_rate = -nan, Pending_hits = 0, Reservation_fails = 0
	L1D_cache_core[11]: Access = 0, Miss = 0, Miss_rate = -nan, Pending_hits = 0, Reservation_fails = 0
	L1D_cache_core[12]: Access = 0, Miss = 0, Miss_rate = -nan, Pending_hits = 0, Reservation_fails = 0
	L1D_cache_core[13]: Access = 0, Miss = 0, Miss_rate = -nan, Pending_hits = 0, Reservation_fails = 0
	L1D_cache_core[14]: Access = 0, Miss = 0, Miss_rate = -nan, Pending_hits = 0, Reservation_fails = 0
	L1D_cache_core[15]: Access = 0, Miss = 0, Miss_rate = -nan, Pending_hits = 0, Reservation_fails = 0
	L1D_cache_core[16]: Access = 0, Miss = 0, Miss_rate = -nan, Pending_hits = 0, Reservation_fails = 0
	L1D_cache_core[17]: Access = 0, Miss = 0, Miss_rate = -nan, Pending_hits = 0, Reservation_fails = 0
	L1D_cache_core[18]: Access = 0, Miss = 0, Miss_rate = -nan, Pending_hits = 0, Reservation_fails = 0
	L1D_cache_core[19]: Access = 0, Miss = 0, Miss_rate = -nan, Pending_hits = 0, Reservation_fails = 0
	L1D_cache_core[20]: Access = 0, Miss = 0, Miss_rate = -nan, Pending_hits = 0, Reservation_fails = 0
	L1D_cache_core[21]: Access = 0, Miss = 0, Miss_rate = -nan, Pending_hits = 0, Reservation_fails = 0
	L1D_cache_core[22]: Access = 0, Miss = 0, Miss_rate = -nan, Pending_hits = 0, Reservation_fails = 0
	L1D_cache_core[23]: Access = 0, Miss = 0, Miss_rate = -nan, Pending_hits = 0, Reservation_fails = 0
	L1D_cache_core[24]: Access = 0, Miss = 0, Miss_rate = -nan, Pending_hits = 0, Reservation_fails = 0
	L1D_cache_core[25]: Access = 0, Miss = 0, Miss_rate = -nan, Pending_hits = 0, Reservation_fails = 0
	L1D_cache_core[26]: Access = 0, Miss = 0, Miss_rate = -nan, Pending_hits = 0, Reservation_fails = 0
	L1D_cache_core[27]: Access = 0, Miss = 0, Miss_rate = -nan, Pending_hits = 0, Reservation_fails = 0
	L1D_total_cache_accesses = 0
	L1D_total_cache_misses = 0
	L1D_total_cache_pending_hits = 0
	L1D_total_cache_reservation_fails = 0
	L1D_cache_data_port_util = 0.000
	L1D_cache_fill_port_util = 0.000
L1C_cache:
	L1C_total_cache_accesses = 2000
	L1C_total_cache_misses = 1792
	L1C_total_cache_miss_rate = 0.8960
	L1C_total_cache_pending_hits = 0
	L1C_total_cache_reservation_fails = 0
L1T_cache:
	L1T_total_cache_accesses = 0
	L1T_total_cache_misses = 0
	L1T_total_cache_pending_hits = 0
	L1T_total_cache_reservation_fails = 0

Total_core_cache_stats:
	Total_core_cache_stats_breakdown[GLOBAL_ACC_R][HIT] = 0
	Total_core_cache_stats_breakdown[GLOBAL_ACC_R][HIT_RESERVED] = 0
	Total_core_cache_stats_breakdown[GLOBAL_ACC_R][MISS] = 0
	Total_core_cache_stats_breakdown[GLOBAL_ACC_R][RESERVATION_FAIL] = 0
	Total_core_cache_stats_breakdown[GLOBAL_ACC_R][SECTOR_MISS] = 0
	Total_core_cache_stats_breakdown[LOCAL_ACC_R][HIT] = 0
	Total_core_cache_stats_breakdown[LOCAL_ACC_R][HIT_RESERVED] = 0
	Total_core_cache_stats_breakdown[LOCAL_ACC_R][MISS] = 0
	Total_core_cache_stats_breakdown[LOCAL_ACC_R][RESERVATION_FAIL] = 0
	Total_core_cache_stats_breakdown[LOCAL_ACC_R][SECTOR_MISS] = 0
	Total_core_cache_stats_breakdown[CONST_ACC_R][HIT] = 208
	Total_core_cache_stats_breakdown[CONST_ACC_R][HIT_RESERVED] = 0
	Total_core_cache_stats_breakdown[CONST_ACC_R][MISS] = 1792
	Total_core_cache_stats_breakdown[CONST_ACC_R][RESERVATION_FAIL] = 0
	Total_core_cache_stats_breakdown[CONST_ACC_R][SECTOR_MISS] = 0
	Total_core_cache_stats_breakdown[TEXTURE_ACC_R][HIT] = 0
	Total_core_cache_stats_breakdown[TEXTURE_ACC_R][HIT_RESERVED] = 0
	Total_core_cache_stats_breakdown[TEXTURE_ACC_R][MISS] = 0
	Total_core_cache_stats_breakdown[TEXTURE_ACC_R][RESERVATION_FAIL] = 0
	Total_core_cache_stats_breakdown[TEXTURE_ACC_R][SECTOR_MISS] = 0
	Total_core_cache_stats_breakdown[GLOBAL_ACC_W][HIT] = 0
	Total_core_cache_stats_breakdown[GLOBAL_ACC_W][HIT_RESERVED] = 0
	Total_core_cache_stats_breakdown[GLOBAL_ACC_W][MISS] = 0
	Total_core_cache_stats_breakdown[GLOBAL_ACC_W][RESERVATION_FAIL] = 0
	Total_core_cache_stats_breakdown[GLOBAL_ACC_W][SECTOR_MISS] = 0
	Total_core_cache_stats_breakdown[LOCAL_ACC_W][HIT] = 0
	Total_core_cache_stats_breakdown[LOCAL_ACC_W][HIT_RESERVED] = 0
	Total_core_cache_stats_breakdown[LOCAL_ACC_W][MISS] = 0
	Total_core_cache_stats_breakdown[LOCAL_ACC_W][RESERVATION_FAIL] = 0
	Total_core_cache_stats_breakdown[LOCAL_ACC_W][SECTOR_MISS] = 0
	Total_core_cache_stats_breakdown[L1_WRBK_ACC][HIT] = 0
	Total_core_cache_stats_breakdown[L1_WRBK_ACC][HIT_RESERVED] = 0
	Total_core_cache_stats_breakdown[L1_WRBK_ACC][MISS] = 0
	Total_core_cache_stats_breakdown[L1_WRBK_ACC][RESERVATION_FAIL] = 0
	Total_core_cache_stats_breakdown[L1_WRBK_ACC][SECTOR_MISS] = 0
	Total_core_cache_stats_breakdown[L2_WRBK_ACC][HIT] = 0
	Total_core_cache_stats_breakdown[L2_WRBK_ACC][HIT_RESERVED] = 0
	Total_core_cache_stats_breakdown[L2_WRBK_ACC][MISS] = 0
	Total_core_cache_stats_breakdown[L2_WRBK_ACC][RESERVATION_FAIL] = 0
	Total_core_cache_stats_breakdown[L2_WRBK_ACC][SECTOR_MISS] = 0
	Total_core_cache_stats_breakdown[INST_ACC_R][HIT] = 6104
	Total_core_cache_stats_breakdown[INST_ACC_R][HIT_RESERVED] = 0
	Total_core_cache_stats_breakdown[INST_ACC_R][MISS] = 896
	Total_core_cache_stats_breakdown[INST_ACC_R][RESERVATION_FAIL] = 0
	Total_core_cache_stats_breakdown[INST_ACC_R][SECTOR_MISS] = 0
	Total_core_cache_stats_breakdown[L1_WR_ALLOC_R][HIT] = 0
	Total_core_cache_stats_breakdown[L1_WR_ALLOC_R][HIT_RESERVED] = 0
	Total_core_cache_stats_breakdown[L1_WR_ALLOC_R][MISS] = 0
	Total_core_cache_stats_breakdown[L1_WR_ALLOC_R][RESERVATION_FAIL] = 0
	Total_core_cache_stats_breakdown[L1_WR_ALLOC_R][SECTOR_MISS] = 0
	Total_core_cache_stats_breakdown[L2_WR_ALLOC_R][HIT] = 0
	Total_core_cache_stats_breakdown[L2_WR_ALLOC_R][HIT_RESERVED] = 0
	Total_core_cache_stats_breakdown[L2_WR_ALLOC_R][MISS] = 0
	Total_core_cache_stats_breakdown[L2_WR_ALLOC_R][RESERVATION_FAIL] = 0
	Total_core_cache_stats_breakdown[L2_WR_ALLOC_R][SECTOR_MISS] = 0
	Total_core_cache_stats_breakdown[CONST_ACC_R][TOTAL_ACCESS] = 2000
	Total_core_cache_stats_breakdown[INST_ACC_R][TOTAL_ACCESS] = 7000

Total_core_cache_fail_stats:
Shader 0 warp_id issue ditsribution:
warp_id:
0, 1, 2, 3, 4, 5, 6, 7, 8, 9, 10, 11, 12, 13, 14, 15, 
distro:
15, 15, 15, 15, 15, 15, 15, 15, 15, 15, 15, 15, 15, 15, 15, 15, 
gpgpu_n_tot_thrd_icount = 448000
gpgpu_n_tot_w_icount = 14000
gpgpu_n_stall_shd_mem = 0
gpgpu_n_mem_read_local = 0
gpgpu_n_mem_write_local = 0
gpgpu_n_mem_read_global = 1000
gpgpu_n_mem_write_global = 1000
gpgpu_n_mem_texture = 0
gpgpu_n_mem_const = 56
gpgpu_n_load_insn  = 1000
gpgpu_n_store_insn = 1000
gpgpu_n_shmem_insn = 0
gpgpu_n_sstarr_insn = 0
gpgpu_n_tex_insn = 0
gpgpu_n_const_mem_insn = 0
gpgpu_n_param_mem_insn = 2000
gpgpu_n_shmem_bkconflict = 0
gpgpu_n_cache_bkconflict = 0
gpgpu_n_intrawarp_mshr_merge = 0
gpgpu_n_cmem_portconflict = 0
gpgpu_stall_shd_mem[c_mem][resource_stall] = 0
gpgpu_stall_shd_mem[s_mem][bk_conf] = 0
gpgpu_stall_shd_mem[gl_mem][resource_stall] = 0
gpgpu_stall_shd_mem[gl_mem][coal_stall] = 0
gpgpu_stall_shd_mem[gl_mem][data_port_stall] = 0
gpu_reg_bank_conflict_stalls = 0
Warp Occupancy Distribution:
Stall:1075	W0_Idle:73854	W0_Scoreboard:44943	W1:14000	W2:0	W3:0	W4:0	W5:0	W6:0	W7:0	W8:0	W9:0	W10:0	W11:0	W12:0	W13:0	W14:0	W15:0	W16:0	W17:0	W18:0	W19:0	W20:0	W21:0	W22:0	W23:0	W24:0	W25:0	W26:0	W27:0	W28:0	W29:0	W30:0	W31:0	W32:0
single_issue_nums: WS0:6024	WS1:5976	
dual_issue_nums: WS0:502	WS1:498	
traffic_breakdown_coretomem[CONST_ACC_R] = 448 {8:56,}
traffic_breakdown_coretomem[GLOBAL_ACC_R] = 8000 {8:1000,}
traffic_breakdown_coretomem[GLOBAL_ACC_W] = 40000 {40:1000,}
traffic_breakdown_coretomem[INST_ACC_R] = 448 {8:56,}
traffic_breakdown_memtocore[CONST_ACC_R] = 4480 {40:112,}
traffic_breakdown_memtocore[GLOBAL_ACC_R] = 40000 {40:1000,}
traffic_breakdown_memtocore[GLOBAL_ACC_W] = 8000 {8:1000,}
traffic_breakdown_memtocore[INST_ACC_R] = 8960 {40:224,}
maxmflatency = 337 
max_icnt2mem_latency = 108 
maxmrqlatency = 18 
max_icnt2sh_latency = 7 
averagemflatency = 142 
avg_icnt2mem_latency = 14 
avg_mrq_latency = 8 
avg_icnt2sh_latency = 10 
mrq_lat_table:2 	0 	0 	3 	1 	0 	0 	0 	0 	0 	0 	0 	0 	0 	0 	0 	0 	0 	0 	0 	0 	0 	0 	0 	0 	0 	0 	0 	0 	0 	0 	0 	
dq_lat_table:0 	0 	0 	0 	0 	0 	0 	0 	0 	0 	0 	0 	0 	0 	0 	0 	0 	0 	0 	0 	0 	0 	0 	0 	0 	0 	0 	0 	0 	0 	0 	0 	
mf_lat_table:0 	0 	0 	0 	0 	0 	0 	2104 	8 	0 	0 	0 	0 	0 	0 	0 	0 	0 	0 	0 	0 	0 	0 	0 	0 	0 	0 	0 	0 	0 	0 	0 	
icnt2mem_lat_table:0 	0 	1018 	897 	130 	64 	3 	0 	0 	0 	0 	0 	0 	0 	0 	0 	0 	0 	0 	0 	0 	0 	0 	0 	
icnt2sh_lat_table:0 	0 	2112 	0 	0 	0 	0 	0 	0 	0 	0 	0 	0 	0 	0 	0 	0 	0 	0 	0 	0 	0 	0 	0 	
mf_lat_pw_table:0 	0 	0 	0 	0 	0 	0 	1 	0 	0 	0 	0 	0 	0 	0 	0 	0 	0 	0 	0 	0 	0 	0 	0 	0 	0 	0 	0 	0 	0 	0 	0 	
maximum concurrent accesses to same row:
dram[0]:         4         0         0         0         0         0         0         0         0         0         0         0         0         0         0         0 
dram[1]:         0         0         0         0         0         0         0         0         0         0         0         0         0         0         0         0 
dram[2]:         0         0         0         0         0         0         0         0         0         0         0         0         0         0         0         0 
dram[3]:         0         0         0         0         0         0         0         0         0         0         0         0         0         0         0         0 
dram[4]:         0         0         0         0         0         0         0         0         0         0         0         0         0         0         0         0 
dram[5]:         0         0         0         0         0         0         0         0         0         0         0         0         0         0         0         0 
dram[6]:         0         0         0         0         0         0         0         0         0         0         0         0         0         0         0         0 
dram[7]:         0         0         0         0         0         0         0         0         0         0         0         0         0         0         0         0 
dram[8]:         0         0         0         0         0         0         0         0         0         0         0         0         0         0         0         0 
dram[9]:         0         0         0         0         0         0         0         0         0         0         0         0         0         0         0         0 
dram[10]:         0         0         0         0         0         0         0         0         0         0         0         0         0         0         0         0 
dram[11]:         0         0         0         0         0         0         0         0         0         0         0         0         0         0         0         0 
maximum service time to same row:
dram[0]:       315         0         0         0         0         0         0         0         0         0         0         0         0         0         0         0 
dram[1]:         0         0         0         0         0         0         0         0         0         0         0         0         0         0         0         0 
dram[2]:         0         0         0         0         0         0         0         0         0         0         0         0         0         0         0         0 
dram[3]:         0         0         0         0         0         0         0         0         0         0         0         0         0         0         0         0 
dram[4]:         0         0         0         0         0         0         0         0         0         0         0         0         0         0         0         0 
dram[5]:         0         0         0         0         0         0         0         0         0         0         0         0         0         0         0         0 
dram[6]:         0         0         0         0         0         0         0         0         0         0         0         0         0         0         0         0 
dram[7]:         0         0         0         0         0         0         0         0         0         0         0         0         0         0         0         0 
dram[8]:         0         0         0         0         0         0         0         0         0         0         0         0         0         0         0         0 
dram[9]:         0         0         0         0         0         0         0         0         0         0         0         0         0         0         0         0 
dram[10]:         0         0         0         0         0         0         0         0         0         0         0         0         0         0         0         0 
dram[11]:         0         0         0         0         0         0         0         0         0         0         0         0         0         0         0         0 
average row accesses per activate:
dram[0]:  3.000000      -nan      -nan      -nan      -nan      -nan      -nan      -nan      -nan      -nan      -nan      -nan      -nan      -nan      -nan      -nan 
dram[1]:      -nan      -nan      -nan      -nan      -nan      -nan      -nan      -nan      -nan      -nan      -nan      -nan      -nan      -nan      -nan      -nan 
dram[2]:      -nan      -nan      -nan      -nan      -nan      -nan      -nan      -nan      -nan      -nan      -nan      -nan      -nan      -nan      -nan      -nan 
dram[3]:      -nan      -nan      -nan      -nan      -nan      -nan      -nan      -nan      -nan      -nan      -nan      -nan      -nan      -nan      -nan      -nan 
dram[4]:      -nan      -nan      -nan      -nan      -nan      -nan      -nan      -nan      -nan      -nan      -nan      -nan      -nan      -nan      -nan      -nan 
dram[5]:      -nan      -nan      -nan      -nan      -nan      -nan      -nan      -nan      -nan      -nan      -nan      -nan      -nan      -nan      -nan      -nan 
dram[6]:      -nan      -nan      -nan      -nan      -nan      -nan      -nan      -nan      -nan      -nan      -nan      -nan      -nan      -nan      -nan      -nan 
dram[7]:      -nan      -nan      -nan      -nan      -nan      -nan      -nan      -nan      -nan      -nan      -nan      -nan      -nan      -nan      -nan      -nan 
dram[8]:      -nan      -nan      -nan      -nan      -nan      -nan      -nan      -nan      -nan      -nan      -nan      -nan      -nan      -nan      -nan      -nan 
dram[9]:      -nan      -nan      -nan      -nan      -nan      -nan      -nan      -nan      -nan      -nan      -nan      -nan      -nan      -nan      -nan      -nan 
dram[10]:      -nan      -nan      -nan      -nan      -nan      -nan      -nan      -nan      -nan      -nan      -nan      -nan      -nan      -nan      -nan      -nan 
dram[11]:      -nan      -nan      -nan      -nan      -nan      -nan      -nan      -nan      -nan      -nan      -nan      -nan      -nan      -nan      -nan      -nan 
average row locality = 6/2 = 3.000000
number of total memory accesses made:
dram[0]:         0         0         0         0         0         0         0         0         0         0         0         0         0         0         0         0 
dram[1]:         0         0         0         0         0         0         0         0         0         0         0         0         0         0         0         0 
dram[2]:         0         0         0         0         0         0         0         0         0         0         0         0         0         0         0         0 
dram[3]:         0         0         0         0         0         0         0         0         0         0         0         0         0         0         0         0 
dram[4]:         0         0         0         0         0         0         0         0         0         0         0         0         0         0         0         0 
dram[5]:         0         0         0         0         0         0         0         0         0         0         0         0         0         0         0         0 
dram[6]:         0         0         0         0         0         0         0         0         0         0         0         0         0         0         0         0 
dram[7]:         0         0         0         0         0         0         0         0         0         0         0         0         0         0         0         0 
dram[8]:         0         0         0         0         0         0         0         0         0         0         0         0         0         0         0         0 
dram[9]:         0         0         0         0         0         0         0         0         0         0         0         0         0         0         0         0 
dram[10]:         0         0         0         0         0         0         0         0         0         0         0         0         0         0         0         0 
dram[11]:         0         0         0         0         0         0         0         0         0         0         0         0         0         0         0         0 
total accesses: 0
min_bank_accesses = 0!
min_chip_accesses = 0!
number of total read accesses:
dram[0]:         6         0         0         0         0         0         0         0         0         0         0         0         0         0         0         0 
dram[1]:         0         0         0         0         0         0         0         0         0         0         0         0         0         0         0         0 
dram[2]:         0         0         0         0         0         0         0         0         0         0         0         0         0         0         0         0 
dram[3]:         0         0         0         0         0         0         0         0         0         0         0         0         0         0         0         0 
dram[4]:         0         0         0         0         0         0         0         0         0         0         0         0         0         0         0         0 
dram[5]:         0         0         0         0         0         0         0         0         0         0         0         0         0         0         0         0 
dram[6]:         0         0         0         0         0         0         0         0         0         0         0         0         0         0         0         0 
dram[7]:         0         0         0         0         0         0         0         0         0         0         0         0         0         0         0         0 
dram[8]:         0         0         0         0         0         0         0         0         0         0         0         0         0         0         0         0 
dram[9]:         0         0         0         0         0         0         0         0         0         0         0         0         0         0         0         0 
dram[10]:         0         0         0         0         0         0         0         0         0         0         0         0         0         0         0         0 
dram[11]:         0         0         0         0         0         0         0         0         0         0         0         0         0         0         0         0 
total reads: 6
min_bank_accesses = 0!
min_chip_accesses = 0!
number of total write accesses:
dram[0]:         0         0         0         0         0         0         0         0         0         0         0         0         0         0         0         0 
dram[1]:         0         0         0         0         0         0         0         0         0         0         0         0         0         0         0         0 
dram[2]:         0         0         0         0         0         0         0         0         0         0         0         0         0         0         0         0 
dram[3]:         0         0         0         0         0         0         0         0         0         0         0         0         0         0         0         0 
dram[4]:         0         0         0         0         0         0         0         0         0         0         0         0         0         0         0         0 
dram[5]:         0         0         0         0         0         0         0         0         0         0         0         0         0         0         0         0 
dram[6]:         0         0         0         0         0         0         0         0         0         0         0         0         0         0         0         0 
dram[7]:         0         0         0         0         0         0         0         0         0         0         0         0         0         0         0         0 
dram[8]:         0         0         0         0         0         0         0         0         0         0         0         0         0         0         0         0 
dram[9]:         0         0         0         0         0         0         0         0         0         0         0         0         0         0         0         0 
dram[10]:         0         0         0         0         0         0         0         0         0         0         0         0         0         0         0         0 
dram[11]:         0         0         0         0         0         0         0         0         0         0         0         0         0         0         0         0 
total reads: 0
min_bank_accesses = 0!
min_chip_accesses = 0!
average mf latency per bank:
dram[0]:       5960    none      none      none      none      none      none      none      none      none      none      none      none      none      none      none  
dram[1]:     none      none      none      none      none      none      none      none      none      none      none      none      none      none      none      none  
dram[2]:     none      none      none      none      none      none      none      none      none      none      none      none      none      none      none      none  
dram[3]:     none      none      none      none      none      none      none      none      none      none      none      none      none      none      none      none  
dram[4]:     none      none      none      none      none      none      none      none      none      none      none      none      none      none      none      none  
dram[5]:     none      none      none      none      none      none      none      none      none      none      none      none      none      none      none      none  
dram[6]:     none      none      none      none      none      none      none      none      none      none      none      none      none      none      none      none  
dram[7]:     none      none      none      none      none      none      none      none      none      none      none      none      none      none      none      none  
dram[8]:     none      none      none      none      none      none      none      none      none      none      none      none      none      none      none      none  
dram[9]:     none      none      none      none      none      none      none      none      none      none      none      none      none      none      none      none  
dram[10]:     none      none      none      none      none      none      none      none      none      none      none      none      none      none      none      none  
dram[11]:     none      none      none      none      none      none      none      none      none      none      none      none      none      none      none      none  
maximum mf latency per bank:
dram[0]:        337       154         0         0         0         0         0         0         0         0         0         0         0         0         0         0
dram[1]:        149       154         0         0         0         0         0         0         0         0         0         0         0         0         0         0
dram[2]:        149       151         0         0         0         0         0         0         0         0         0         0         0         0         0         0
dram[3]:        152       149         0         0         0         0         0         0         0         0         0         0         0         0         0         0
dram[4]:        153       148         0         0         0         0         0         0         0         0         0         0         0         0         0         0
dram[5]:        156       149         0         0         0         0         0         0         0         0         0         0         0         0         0         0
dram[6]:        154       147         0         0         0         0         0         0         0         0         0         0         0         0         0         0
dram[7]:        154       154         0         0         0         0         0         0         0         0         0         0         0         0         0         0
dram[8]:        154       156         0         0         0         0         0         0         0         0         0         0         0         0         0         0
dram[9]:        150       153         0         0         0         0         0         0         0         0         0         0         0         0         0         0
dram[10]:        151       149         0         0         0         0         0         0         0         0         0         0         0         0         0         0
dram[11]:        152       154         0         0         0         0         0         0         0         0         0         0         0         0         0         0
Memory Partition 0: 
Cache L2_bank_000:
MSHR contents

Cache L2_bank_001:
MSHR contents

In Dram Latency Queue (total = 0): 
DRAM[0]: 16 bks, busW=4 BL=8 CL=16, tRRD=8 tCCD=2, tRCD=16 tRAS=37 tRP=16 tRC=52
n_cmd=2354 n_nop=2345 n_act=2 n_pre=1 n_ref_event=0 n_req=6 n_rd=6 n_rd_L2_A=0 n_write=0 n_wr_bk=0 bw_util=0.005098
n_activity=120 dram_eff=0.1
bk0: 6a 2294i bk1: 0a 2353i bk2: 0a 2353i bk3: 0a 2353i bk4: 0a 2353i bk5: 0a 2354i bk6: 0a 2354i bk7: 0a 2354i bk8: 0a 2354i bk9: 0a 2354i bk10: 0a 2354i bk11: 0a 2354i bk12: 0a 2354i bk13: 0a 2355i bk14: 0a 2355i bk15: 0a 2355i 

------------------------------------------------------------------------
------------bank[0] rowcount ----------
0 rowcount : 1
1 rowcount : 0
2 rowcount : 0
3 rowcount : 0
4 rowcount : 0
5 rowcount : 0
6 rowcount : 0
7 rowcount : 0
8 rowcount : 0
9 rowcount : 0
10 rowcount : 0
11 rowcount : 0
12 rowcount : 0
13 rowcount : 0
14 rowcount : 0
15 rowcount : 0
16 rowcount : 0
17 rowcount : 0
18 rowcount : 0
19 rowcount : 0
20 rowcount : 0
21 rowcount : 0
22 rowcount : 0
23 rowcount : 0
24 rowcount : 0
25 rowcount : 0
26 rowcount : 0
27 rowcount : 0
28 rowcount : 0
29 rowcount : 0
30 rowcount : 0
31 rowcount : 0
32 rowcount : 0
33 rowcount : 0
34 rowcount : 0
35 rowcount : 0
36 rowcount : 0
37 rowcount : 0
38 rowcount : 0
39 rowcount : 0
40 rowcount : 0
41 rowcount : 0
42 rowcount : 0
43 rowcount : 0
44 rowcount : 0
45 rowcount : 0
46 rowcount : 0
47 rowcount : 0
48 rowcount : 0
49 rowcount : 0
50 rowcount : 0
51 rowcount : 0
52 rowcount : 0
53 rowcount : 0
54 rowcount : 0
55 rowcount : 0
56 rowcount : 0
57 rowcount : 0
58 rowcount : 0
59 rowcount : 0
60 rowcount : 0
61 rowcount : 0
62 rowcount : 0
63 rowcount : 0
64 rowcount : 0
65 rowcount : 0
66 rowcount : 0
67 rowcount : 0
68 rowcount : 0
69 rowcount : 0
70 rowcount : 0
71 rowcount : 0
72 rowcount : 0
73 rowcount : 0
74 rowcount : 0
75 rowcount : 0
76 rowcount : 0
77 rowcount : 0
78 rowcount : 0
79 rowcount : 0
80 rowcount : 0
81 rowcount : 0
82 rowcount : 0
83 rowcount : 0
84 rowcount : 0
85 rowcount : 0
86 rowcount : 0
87 rowcount : 0
88 rowcount : 0
89 rowcount : 0
90 rowcount : 0
91 rowcount : 0
92 rowcount : 0
93 rowcount : 0
94 rowcount : 0
95 rowcount : 0
96 rowcount : 0
97 rowcount : 0
98 rowcount : 0
99 rowcount : 0
100 rowcount : 0
101 rowcount : 0
102 rowcount : 0
103 rowcount : 0
104 rowcount : 0
105 rowcount : 0
106 rowcount : 0
107 rowcount : 0
108 rowcount : 0
109 rowcount : 0
110 rowcount : 0
111 rowcount : 0
112 rowcount : 0
113 rowcount : 0
114 rowcount : 0
115 rowcount : 0
116 rowcount : 0
117 rowcount : 0
118 rowcount : 0
119 rowcount : 0
120 rowcount : 0
121 rowcount : 0
122 rowcount : 0
123 rowcount : 0
124 rowcount : 0
125 rowcount : 0
126 rowcount : 0
127 rowcount : 0
128 rowcount : 0
129 rowcount : 0
130 rowcount : 0
131 rowcount : 0
132 rowcount : 0
------------bank[1] rowcount ----------
0 rowcount : 0
1 rowcount : 0
2 rowcount : 0
3 rowcount : 0
4 rowcount : 0
5 rowcount : 0
6 rowcount : 0
7 rowcount : 0
8 rowcount : 0
9 rowcount : 0
10 rowcount : 0
11 rowcount : 0
12 rowcount : 0
13 rowcount : 0
14 rowcount : 0
15 rowcount : 0
16 rowcount : 0
17 rowcount : 0
18 rowcount : 0
19 rowcount : 0
20 rowcount : 0
21 rowcount : 0
22 rowcount : 0
23 rowcount : 0
24 rowcount : 0
25 rowcount : 0
26 rowcount : 0
27 rowcount : 0
28 rowcount : 0
29 rowcount : 0
30 rowcount : 0
31 rowcount : 0
32 rowcount : 0
33 rowcount : 0
34 rowcount : 0
35 rowcount : 0
36 rowcount : 0
37 rowcount : 0
38 rowcount : 0
39 rowcount : 0
40 rowcount : 0
41 rowcount : 0
42 rowcount : 0
43 rowcount : 0
44 rowcount : 0
45 rowcount : 0
46 rowcount : 0
47 rowcount : 0
48 rowcount : 0
49 rowcount : 0
50 rowcount : 0
51 rowcount : 0
52 rowcount : 0
53 rowcount : 0
54 rowcount : 0
55 rowcount : 0
56 rowcount : 0
57 rowcount : 0
58 rowcount : 0
59 rowcount : 0
60 rowcount : 0
61 rowcount : 0
62 rowcount : 0
63 rowcount : 0
64 rowcount : 0
65 rowcount : 0
66 rowcount : 0
67 rowcount : 0
68 rowcount : 0
69 rowcount : 0
70 rowcount : 0
71 rowcount : 0
72 rowcount : 0
73 rowcount : 0
74 rowcount : 0
75 rowcount : 0
76 rowcount : 0
77 rowcount : 0
78 rowcount : 0
79 rowcount : 0
80 rowcount : 0
81 rowcount : 0
82 rowcount : 0
83 rowcount : 0
84 rowcount : 0
85 rowcount : 0
86 rowcount : 0
87 rowcount : 0
88 rowcount : 0
89 rowcount : 0
90 rowcount : 0
91 rowcount : 0
92 rowcount : 0
93 rowcount : 0
94 rowcount : 0
95 rowcount : 0
96 rowcount : 0
97 rowcount : 0
98 rowcount : 0
99 rowcount : 0
100 rowcount : 0
101 rowcount : 0
102 rowcount : 0
103 rowcount : 0
104 rowcount : 0
105 rowcount : 0
106 rowcount : 0
107 rowcount : 0
108 rowcount : 0
109 rowcount : 0
110 rowcount : 0
111 rowcount : 0
112 rowcount : 0
113 rowcount : 0
114 rowcount : 0
115 rowcount : 0
116 rowcount : 0
117 rowcount : 0
118 rowcount : 0
119 rowcount : 0
120 rowcount : 0
121 rowcount : 0
122 rowcount : 0
123 rowcount : 0
124 rowcount : 0
125 rowcount : 0
126 rowcount : 0
127 rowcount : 0
128 rowcount : 0
129 rowcount : 0
130 rowcount : 0
131 rowcount : 0
132 rowcount : 0
------------bank[2] rowcount ----------
0 rowcount : 0
1 rowcount : 0
2 rowcount : 0
3 rowcount : 0
4 rowcount : 0
5 rowcount : 0
6 rowcount : 0
7 rowcount : 0
8 rowcount : 0
9 rowcount : 0
10 rowcount : 0
11 rowcount : 0
12 rowcount : 0
13 rowcount : 0
14 rowcount : 0
15 rowcount : 0
16 rowcount : 0
17 rowcount : 0
18 rowcount : 0
19 rowcount : 0
20 rowcount : 0
21 rowcount : 0
22 rowcount : 0
23 rowcount : 0
24 rowcount : 0
25 rowcount : 0
26 rowcount : 0
27 rowcount : 0
28 rowcount : 0
29 rowcount : 0
30 rowcount : 0
31 rowcount : 0
32 rowcount : 0
33 rowcount : 0
34 rowcount : 0
35 rowcount : 0
36 rowcount : 0
37 rowcount : 0
38 rowcount : 0
39 rowcount : 0
40 rowcount : 0
41 rowcount : 0
42 rowcount : 0
43 rowcount : 0
44 rowcount : 0
45 rowcount : 0
46 rowcount : 0
47 rowcount : 0
48 rowcount : 0
49 rowcount : 0
50 rowcount : 0
51 rowcount : 0
52 rowcount : 0
53 rowcount : 0
54 rowcount : 0
55 rowcount : 0
56 rowcount : 0
57 rowcount : 0
58 rowcount : 0
59 rowcount : 0
60 rowcount : 0
61 rowcount : 0
62 rowcount : 0
63 rowcount : 0
64 rowcount : 0
65 rowcount : 0
66 rowcount : 0
67 rowcount : 0
68 rowcount : 0
69 rowcount : 0
70 rowcount : 0
71 rowcount : 0
72 rowcount : 0
73 rowcount : 0
74 rowcount : 0
75 rowcount : 0
76 rowcount : 0
77 rowcount : 0
78 rowcount : 0
79 rowcount : 0
80 rowcount : 0
81 rowcount : 0
82 rowcount : 0
83 rowcount : 0
84 rowcount : 0
85 rowcount : 0
86 rowcount : 0
87 rowcount : 0
88 rowcount : 0
89 rowcount : 0
90 rowcount : 0
91 rowcount : 0
92 rowcount : 0
93 rowcount : 0
94 rowcount : 0
95 rowcount : 0
96 rowcount : 0
97 rowcount : 0
98 rowcount : 0
99 rowcount : 0
100 rowcount : 0
101 rowcount : 0
102 rowcount : 0
103 rowcount : 0
104 rowcount : 0
105 rowcount : 0
106 rowcount : 0
107 rowcount : 0
108 rowcount : 0
109 rowcount : 0
110 rowcount : 0
111 rowcount : 0
112 rowcount : 0
113 rowcount : 0
114 rowcount : 0
115 rowcount : 0
116 rowcount : 0
117 rowcount : 0
118 rowcount : 0
119 rowcount : 0
120 rowcount : 0
121 rowcount : 0
122 rowcount : 0
123 rowcount : 0
124 rowcount : 0
125 rowcount : 0
126 rowcount : 0
127 rowcount : 0
128 rowcount : 0
129 rowcount : 0
130 rowcount : 0
131 rowcount : 0
132 rowcount : 0
------------bank[3] rowcount ----------
0 rowcount : 0
1 rowcount : 0
2 rowcount : 0
3 rowcount : 0
4 rowcount : 0
5 rowcount : 0
6 rowcount : 0
7 rowcount : 0
8 rowcount : 0
9 rowcount : 0
10 rowcount : 0
11 rowcount : 0
12 rowcount : 0
13 rowcount : 0
14 rowcount : 0
15 rowcount : 0
16 rowcount : 0
17 rowcount : 0
18 rowcount : 0
19 rowcount : 0
20 rowcount : 0
21 rowcount : 0
22 rowcount : 0
23 rowcount : 0
24 rowcount : 0
25 rowcount : 0
26 rowcount : 0
27 rowcount : 0
28 rowcount : 0
29 rowcount : 0
30 rowcount : 0
31 rowcount : 0
32 rowcount : 0
33 rowcount : 0
34 rowcount : 0
35 rowcount : 0
36 rowcount : 0
37 rowcount : 0
38 rowcount : 0
39 rowcount : 0
40 rowcount : 0
41 rowcount : 0
42 rowcount : 0
43 rowcount : 0
44 rowcount : 0
45 rowcount : 0
46 rowcount : 0
47 rowcount : 0
48 rowcount : 0
49 rowcount : 0
50 rowcount : 0
51 rowcount : 0
52 rowcount : 0
53 rowcount : 0
54 rowcount : 0
55 rowcount : 0
56 rowcount : 0
57 rowcount : 0
58 rowcount : 0
59 rowcount : 0
60 rowcount : 0
61 rowcount : 0
62 rowcount : 0
63 rowcount : 0
64 rowcount : 0
65 rowcount : 0
66 rowcount : 0
67 rowcount : 0
68 rowcount : 0
69 rowcount : 0
70 rowcount : 0
71 rowcount : 0
72 rowcount : 0
73 rowcount : 0
74 rowcount : 0
75 rowcount : 0
76 rowcount : 0
77 rowcount : 0
78 rowcount : 0
79 rowcount : 0
80 rowcount : 0
81 rowcount : 0
82 rowcount : 0
83 rowcount : 0
84 rowcount : 0
85 rowcount : 0
86 rowcount : 0
87 rowcount : 0
88 rowcount : 0
89 rowcount : 0
90 rowcount : 0
91 rowcount : 0
92 rowcount : 0
93 rowcount : 0
94 rowcount : 0
95 rowcount : 0
96 rowcount : 0
97 rowcount : 0
98 rowcount : 0
99 rowcount : 0
100 rowcount : 0
101 rowcount : 0
102 rowcount : 0
103 rowcount : 0
104 rowcount : 0
105 rowcount : 0
106 rowcount : 0
107 rowcount : 0
108 rowcount : 0
109 rowcount : 0
110 rowcount : 0
111 rowcount : 0
112 rowcount : 0
113 rowcount : 0
114 rowcount : 0
115 rowcount : 0
116 rowcount : 0
117 rowcount : 0
118 rowcount : 0
119 rowcount : 0
120 rowcount : 0
121 rowcount : 0
122 rowcount : 0
123 rowcount : 0
124 rowcount : 0
125 rowcount : 0
126 rowcount : 0
127 rowcount : 0
128 rowcount : 0
129 rowcount : 0
130 rowcount : 0
131 rowcount : 0
132 rowcount : 0
------------bank[4] rowcount ----------
0 rowcount : 0
1 rowcount : 0
2 rowcount : 0
3 rowcount : 0
4 rowcount : 0
5 rowcount : 0
6 rowcount : 0
7 rowcount : 0
8 rowcount : 0
9 rowcount : 0
10 rowcount : 0
11 rowcount : 0
12 rowcount : 0
13 rowcount : 0
14 rowcount : 0
15 rowcount : 0
16 rowcount : 0
17 rowcount : 0
18 rowcount : 0
19 rowcount : 0
20 rowcount : 0
21 rowcount : 0
22 rowcount : 0
23 rowcount : 0
24 rowcount : 0
25 rowcount : 0
26 rowcount : 0
27 rowcount : 0
28 rowcount : 0
29 rowcount : 0
30 rowcount : 0
31 rowcount : 0
32 rowcount : 0
33 rowcount : 0
34 rowcount : 0
35 rowcount : 0
36 rowcount : 0
37 rowcount : 0
38 rowcount : 0
39 rowcount : 0
40 rowcount : 0
41 rowcount : 0
42 rowcount : 0
43 rowcount : 0
44 rowcount : 0
45 rowcount : 0
46 rowcount : 0
47 rowcount : 0
48 rowcount : 0
49 rowcount : 0
50 rowcount : 0
51 rowcount : 0
52 rowcount : 0
53 rowcount : 0
54 rowcount : 0
55 rowcount : 0
56 rowcount : 0
57 rowcount : 0
58 rowcount : 0
59 rowcount : 0
60 rowcount : 0
61 rowcount : 0
62 rowcount : 0
63 rowcount : 0
64 rowcount : 0
65 rowcount : 0
66 rowcount : 0
67 rowcount : 0
68 rowcount : 0
69 rowcount : 0
70 rowcount : 0
71 rowcount : 0
72 rowcount : 0
73 rowcount : 0
74 rowcount : 0
75 rowcount : 0
76 rowcount : 0
77 rowcount : 0
78 rowcount : 0
79 rowcount : 0
80 rowcount : 0
81 rowcount : 0
82 rowcount : 0
83 rowcount : 0
84 rowcount : 0
85 rowcount : 0
86 rowcount : 0
87 rowcount : 0
88 rowcount : 0
89 rowcount : 0
90 rowcount : 0
91 rowcount : 0
92 rowcount : 0
93 rowcount : 0
94 rowcount : 0
95 rowcount : 0
96 rowcount : 0
97 rowcount : 0
98 rowcount : 0
99 rowcount : 0
100 rowcount : 0
101 rowcount : 0
102 rowcount : 0
103 rowcount : 0
104 rowcount : 0
105 rowcount : 0
106 rowcount : 0
107 rowcount : 0
108 rowcount : 0
109 rowcount : 0
110 rowcount : 0
111 rowcount : 0
112 rowcount : 0
113 rowcount : 0
114 rowcount : 0
115 rowcount : 0
116 rowcount : 0
117 rowcount : 0
118 rowcount : 0
119 rowcount : 0
120 rowcount : 0
121 rowcount : 0
122 rowcount : 0
123 rowcount : 0
124 rowcount : 0
125 rowcount : 0
126 rowcount : 0
127 rowcount : 0
128 rowcount : 0
129 rowcount : 0
130 rowcount : 0
131 rowcount : 0
132 rowcount : 0
------------bank[5] rowcount ----------
0 rowcount : 0
1 rowcount : 0
2 rowcount : 0
3 rowcount : 0
4 rowcount : 0
5 rowcount : 0
6 rowcount : 0
7 rowcount : 0
8 rowcount : 0
9 rowcount : 0
10 rowcount : 0
11 rowcount : 0
12 rowcount : 0
13 rowcount : 0
14 rowcount : 0
15 rowcount : 0
16 rowcount : 0
17 rowcount : 0
18 rowcount : 0
19 rowcount : 0
20 rowcount : 0
21 rowcount : 0
22 rowcount : 0
23 rowcount : 0
24 rowcount : 0
25 rowcount : 0
26 rowcount : 0
27 rowcount : 0
28 rowcount : 0
29 rowcount : 0
30 rowcount : 0
31 rowcount : 0
32 rowcount : 0
33 rowcount : 0
34 rowcount : 0
35 rowcount : 0
36 rowcount : 0
37 rowcount : 0
38 rowcount : 0
39 rowcount : 0
40 rowcount : 0
41 rowcount : 0
42 rowcount : 0
43 rowcount : 0
44 rowcount : 0
45 rowcount : 0
46 rowcount : 0
47 rowcount : 0
48 rowcount : 0
49 rowcount : 0
50 rowcount : 0
51 rowcount : 0
52 rowcount : 0
53 rowcount : 0
54 rowcount : 0
55 rowcount : 0
56 rowcount : 0
57 rowcount : 0
58 rowcount : 0
59 rowcount : 0
60 rowcount : 0
61 rowcount : 0
62 rowcount : 0
63 rowcount : 0
64 rowcount : 0
65 rowcount : 0
66 rowcount : 0
67 rowcount : 0
68 rowcount : 0
69 rowcount : 0
70 rowcount : 0
71 rowcount : 0
72 rowcount : 0
73 rowcount : 0
74 rowcount : 0
75 rowcount : 0
76 rowcount : 0
77 rowcount : 0
78 rowcount : 0
79 rowcount : 0
80 rowcount : 0
81 rowcount : 0
82 rowcount : 0
83 rowcount : 0
84 rowcount : 0
85 rowcount : 0
86 rowcount : 0
87 rowcount : 0
88 rowcount : 0
89 rowcount : 0
90 rowcount : 0
91 rowcount : 0
92 rowcount : 0
93 rowcount : 0
94 rowcount : 0
95 rowcount : 0
96 rowcount : 0
97 rowcount : 0
98 rowcount : 0
99 rowcount : 0
100 rowcount : 0
101 rowcount : 0
102 rowcount : 0
103 rowcount : 0
104 rowcount : 0
105 rowcount : 0
106 rowcount : 0
107 rowcount : 0
108 rowcount : 0
109 rowcount : 0
110 rowcount : 0
111 rowcount : 0
112 rowcount : 0
113 rowcount : 0
114 rowcount : 0
115 rowcount : 0
116 rowcount : 0
117 rowcount : 0
118 rowcount : 0
119 rowcount : 0
120 rowcount : 0
121 rowcount : 0
122 rowcount : 0
123 rowcount : 0
124 rowcount : 0
125 rowcount : 0
126 rowcount : 0
127 rowcount : 0
128 rowcount : 0
129 rowcount : 0
130 rowcount : 0
131 rowcount : 0
132 rowcount : 0
------------bank[6] rowcount ----------
0 rowcount : 0
1 rowcount : 0
2 rowcount : 0
3 rowcount : 0
4 rowcount : 0
5 rowcount : 0
6 rowcount : 0
7 rowcount : 0
8 rowcount : 0
9 rowcount : 0
10 rowcount : 0
11 rowcount : 0
12 rowcount : 0
13 rowcount : 0
14 rowcount : 0
15 rowcount : 0
16 rowcount : 0
17 rowcount : 0
18 rowcount : 0
19 rowcount : 0
20 rowcount : 0
21 rowcount : 0
22 rowcount : 0
23 rowcount : 0
24 rowcount : 0
25 rowcount : 0
26 rowcount : 0
27 rowcount : 0
28 rowcount : 0
29 rowcount : 0
30 rowcount : 0
31 rowcount : 0
32 rowcount : 0
33 rowcount : 0
34 rowcount : 0
35 rowcount : 0
36 rowcount : 0
37 rowcount : 0
38 rowcount : 0
39 rowcount : 0
40 rowcount : 0
41 rowcount : 0
42 rowcount : 0
43 rowcount : 0
44 rowcount : 0
45 rowcount : 0
46 rowcount : 0
47 rowcount : 0
48 rowcount : 0
49 rowcount : 0
50 rowcount : 0
51 rowcount : 0
52 rowcount : 0
53 rowcount : 0
54 rowcount : 0
55 rowcount : 0
56 rowcount : 0
57 rowcount : 0
58 rowcount : 0
59 rowcount : 0
60 rowcount : 0
61 rowcount : 0
62 rowcount : 0
63 rowcount : 0
64 rowcount : 0
65 rowcount : 0
66 rowcount : 0
67 rowcount : 0
68 rowcount : 0
69 rowcount : 0
70 rowcount : 0
71 rowcount : 0
72 rowcount : 0
73 rowcount : 0
74 rowcount : 0
75 rowcount : 0
76 rowcount : 0
77 rowcount : 0
78 rowcount : 0
79 rowcount : 0
80 rowcount : 0
81 rowcount : 0
82 rowcount : 0
83 rowcount : 0
84 rowcount : 0
85 rowcount : 0
86 rowcount : 0
87 rowcount : 0
88 rowcount : 0
89 rowcount : 0
90 rowcount : 0
91 rowcount : 0
92 rowcount : 0
93 rowcount : 0
94 rowcount : 0
95 rowcount : 0
96 rowcount : 0
97 rowcount : 0
98 rowcount : 0
99 rowcount : 0
100 rowcount : 0
101 rowcount : 0
102 rowcount : 0
103 rowcount : 0
104 rowcount : 0
105 rowcount : 0
106 rowcount : 0
107 rowcount : 0
108 rowcount : 0
109 rowcount : 0
110 rowcount : 0
111 rowcount : 0
112 rowcount : 0
113 rowcount : 0
114 rowcount : 0
115 rowcount : 0
116 rowcount : 0
117 rowcount : 0
118 rowcount : 0
119 rowcount : 0
120 rowcount : 0
121 rowcount : 0
122 rowcount : 0
123 rowcount : 0
124 rowcount : 0
125 rowcount : 0
126 rowcount : 0
127 rowcount : 0
128 rowcount : 0
129 rowcount : 0
130 rowcount : 0
131 rowcount : 0
132 rowcount : 0
------------bank[7] rowcount ----------
0 rowcount : 0
1 rowcount : 0
2 rowcount : 0
3 rowcount : 0
4 rowcount : 0
5 rowcount : 0
6 rowcount : 0
7 rowcount : 0
8 rowcount : 0
9 rowcount : 0
10 rowcount : 0
11 rowcount : 0
12 rowcount : 0
13 rowcount : 0
14 rowcount : 0
15 rowcount : 0
16 rowcount : 0
17 rowcount : 0
18 rowcount : 0
19 rowcount : 0
20 rowcount : 0
21 rowcount : 0
22 rowcount : 0
23 rowcount : 0
24 rowcount : 0
25 rowcount : 0
26 rowcount : 0
27 rowcount : 0
28 rowcount : 0
29 rowcount : 0
30 rowcount : 0
31 rowcount : 0
32 rowcount : 0
33 rowcount : 0
34 rowcount : 0
35 rowcount : 0
36 rowcount : 0
37 rowcount : 0
38 rowcount : 0
39 rowcount : 0
40 rowcount : 0
41 rowcount : 0
42 rowcount : 0
43 rowcount : 0
44 rowcount : 0
45 rowcount : 0
46 rowcount : 0
47 rowcount : 0
48 rowcount : 0
49 rowcount : 0
50 rowcount : 0
51 rowcount : 0
52 rowcount : 0
53 rowcount : 0
54 rowcount : 0
55 rowcount : 0
56 rowcount : 0
57 rowcount : 0
58 rowcount : 0
59 rowcount : 0
60 rowcount : 0
61 rowcount : 0
62 rowcount : 0
63 rowcount : 0
64 rowcount : 0
65 rowcount : 0
66 rowcount : 0
67 rowcount : 0
68 rowcount : 0
69 rowcount : 0
70 rowcount : 0
71 rowcount : 0
72 rowcount : 0
73 rowcount : 0
74 rowcount : 0
75 rowcount : 0
76 rowcount : 0
77 rowcount : 0
78 rowcount : 0
79 rowcount : 0
80 rowcount : 0
81 rowcount : 0
82 rowcount : 0
83 rowcount : 0
84 rowcount : 0
85 rowcount : 0
86 rowcount : 0
87 rowcount : 0
88 rowcount : 0
89 rowcount : 0
90 rowcount : 0
91 rowcount : 0
92 rowcount : 0
93 rowcount : 0
94 rowcount : 0
95 rowcount : 0
96 rowcount : 0
97 rowcount : 0
98 rowcount : 0
99 rowcount : 0
100 rowcount : 0
101 rowcount : 0
102 rowcount : 0
103 rowcount : 0
104 rowcount : 0
105 rowcount : 0
106 rowcount : 0
107 rowcount : 0
108 rowcount : 0
109 rowcount : 0
110 rowcount : 0
111 rowcount : 0
112 rowcount : 0
113 rowcount : 0
114 rowcount : 0
115 rowcount : 0
116 rowcount : 0
117 rowcount : 0
118 rowcount : 0
119 rowcount : 0
120 rowcount : 0
121 rowcount : 0
122 rowcount : 0
123 rowcount : 0
124 rowcount : 0
125 rowcount : 0
126 rowcount : 0
127 rowcount : 0
128 rowcount : 0
129 rowcount : 0
130 rowcount : 0
131 rowcount : 0
132 rowcount : 0
------------bank[8] rowcount ----------
0 rowcount : 0
1 rowcount : 0
2 rowcount : 0
3 rowcount : 0
4 rowcount : 0
5 rowcount : 0
6 rowcount : 0
7 rowcount : 0
8 rowcount : 0
9 rowcount : 0
10 rowcount : 0
11 rowcount : 0
12 rowcount : 0
13 rowcount : 0
14 rowcount : 0
15 rowcount : 0
16 rowcount : 0
17 rowcount : 0
18 rowcount : 0
19 rowcount : 0
20 rowcount : 0
21 rowcount : 0
22 rowcount : 0
23 rowcount : 0
24 rowcount : 0
25 rowcount : 0
26 rowcount : 0
27 rowcount : 0
28 rowcount : 0
29 rowcount : 0
30 rowcount : 0
31 rowcount : 0
32 rowcount : 0
33 rowcount : 0
34 rowcount : 0
35 rowcount : 0
36 rowcount : 0
37 rowcount : 0
38 rowcount : 0
39 rowcount : 0
40 rowcount : 0
41 rowcount : 0
42 rowcount : 0
43 rowcount : 0
44 rowcount : 0
45 rowcount : 0
46 rowcount : 0
47 rowcount : 0
48 rowcount : 0
49 rowcount : 0
50 rowcount : 0
51 rowcount : 0
52 rowcount : 0
53 rowcount : 0
54 rowcount : 0
55 rowcount : 0
56 rowcount : 0
57 rowcount : 0
58 rowcount : 0
59 rowcount : 0
60 rowcount : 0
61 rowcount : 0
62 rowcount : 0
63 rowcount : 0
64 rowcount : 0
65 rowcount : 0
66 rowcount : 0
67 rowcount : 0
68 rowcount : 0
69 rowcount : 0
70 rowcount : 0
71 rowcount : 0
72 rowcount : 0
73 rowcount : 0
74 rowcount : 0
75 rowcount : 0
76 rowcount : 0
77 rowcount : 0
78 rowcount : 0
79 rowcount : 0
80 rowcount : 0
81 rowcount : 0
82 rowcount : 0
83 rowcount : 0
84 rowcount : 0
85 rowcount : 0
86 rowcount : 0
87 rowcount : 0
88 rowcount : 0
89 rowcount : 0
90 rowcount : 0
91 rowcount : 0
92 rowcount : 0
93 rowcount : 0
94 rowcount : 0
95 rowcount : 0
96 rowcount : 0
97 rowcount : 0
98 rowcount : 0
99 rowcount : 0
100 rowcount : 0
101 rowcount : 0
102 rowcount : 0
103 rowcount : 0
104 rowcount : 0
105 rowcount : 0
106 rowcount : 0
107 rowcount : 0
108 rowcount : 0
109 rowcount : 0
110 rowcount : 0
111 rowcount : 0
112 rowcount : 0
113 rowcount : 0
114 rowcount : 0
115 rowcount : 0
116 rowcount : 0
117 rowcount : 0
118 rowcount : 0
119 rowcount : 0
120 rowcount : 0
121 rowcount : 0
122 rowcount : 0
123 rowcount : 0
124 rowcount : 0
125 rowcount : 0
126 rowcount : 0
127 rowcount : 0
128 rowcount : 0
129 rowcount : 0
130 rowcount : 0
131 rowcount : 0
132 rowcount : 0
------------bank[9] rowcount ----------
0 rowcount : 0
1 rowcount : 0
2 rowcount : 0
3 rowcount : 0
4 rowcount : 0
5 rowcount : 0
6 rowcount : 0
7 rowcount : 0
8 rowcount : 0
9 rowcount : 0
10 rowcount : 0
11 rowcount : 0
12 rowcount : 0
13 rowcount : 0
14 rowcount : 0
15 rowcount : 0
16 rowcount : 0
17 rowcount : 0
18 rowcount : 0
19 rowcount : 0
20 rowcount : 0
21 rowcount : 0
22 rowcount : 0
23 rowcount : 0
24 rowcount : 0
25 rowcount : 0
26 rowcount : 0
27 rowcount : 0
28 rowcount : 0
29 rowcount : 0
30 rowcount : 0
31 rowcount : 0
32 rowcount : 0
33 rowcount : 0
34 rowcount : 0
35 rowcount : 0
36 rowcount : 0
37 rowcount : 0
38 rowcount : 0
39 rowcount : 0
40 rowcount : 0
41 rowcount : 0
42 rowcount : 0
43 rowcount : 0
44 rowcount : 0
45 rowcount : 0
46 rowcount : 0
47 rowcount : 0
48 rowcount : 0
49 rowcount : 0
50 rowcount : 0
51 rowcount : 0
52 rowcount : 0
53 rowcount : 0
54 rowcount : 0
55 rowcount : 0
56 rowcount : 0
57 rowcount : 0
58 rowcount : 0
59 rowcount : 0
60 rowcount : 0
61 rowcount : 0
62 rowcount : 0
63 rowcount : 0
64 rowcount : 0
65 rowcount : 0
66 rowcount : 0
67 rowcount : 0
68 rowcount : 0
69 rowcount : 0
70 rowcount : 0
71 rowcount : 0
72 rowcount : 0
73 rowcount : 0
74 rowcount : 0
75 rowcount : 0
76 rowcount : 0
77 rowcount : 0
78 rowcount : 0
79 rowcount : 0
80 rowcount : 0
81 rowcount : 0
82 rowcount : 0
83 rowcount : 0
84 rowcount : 0
85 rowcount : 0
86 rowcount : 0
87 rowcount : 0
88 rowcount : 0
89 rowcount : 0
90 rowcount : 0
91 rowcount : 0
92 rowcount : 0
93 rowcount : 0
94 rowcount : 0
95 rowcount : 0
96 rowcount : 0
97 rowcount : 0
98 rowcount : 0
99 rowcount : 0
100 rowcount : 0
101 rowcount : 0
102 rowcount : 0
103 rowcount : 0
104 rowcount : 0
105 rowcount : 0
106 rowcount : 0
107 rowcount : 0
108 rowcount : 0
109 rowcount : 0
110 rowcount : 0
111 rowcount : 0
112 rowcount : 0
113 rowcount : 0
114 rowcount : 0
115 rowcount : 0
116 rowcount : 0
117 rowcount : 0
118 rowcount : 0
119 rowcount : 0
120 rowcount : 0
121 rowcount : 0
122 rowcount : 0
123 rowcount : 0
124 rowcount : 0
125 rowcount : 0
126 rowcount : 0
127 rowcount : 0
128 rowcount : 0
129 rowcount : 0
130 rowcount : 0
131 rowcount : 0
132 rowcount : 0
------------bank[10] rowcount ----------
0 rowcount : 0
1 rowcount : 0
2 rowcount : 0
3 rowcount : 0
4 rowcount : 0
5 rowcount : 0
6 rowcount : 0
7 rowcount : 0
8 rowcount : 0
9 rowcount : 0
10 rowcount : 0
11 rowcount : 0
12 rowcount : 0
13 rowcount : 0
14 rowcount : 0
15 rowcount : 0
16 rowcount : 0
17 rowcount : 0
18 rowcount : 0
[...]
36 rowcount : 0
37 rowcount : 0
38 rowcount : 0
39 rowcount : 0
40 rowcount : 0
41 rowcount : 0
42 rowcount : 0
43 rowcount : 0
44 rowcount : 0
45 rowcount : 0
46 rowcount : 0
47 rowcount : 0
48 rowcount : 0
49 rowcount : 0
50 rowcount : 0
51 rowcount : 0
52 rowcount : 0
53 rowcount : 0
54 rowcount : 0
55 rowcount : 0
56 rowcount : 0
57 rowcount : 0
58 rowcount : 0
59 rowcount : 0
60 rowcount : 0
61 rowcount : 0
62 rowcount : 0
63 rowcount : 0
64 rowcount : 0
65 rowcount : 0
66 rowcount : 0
67 rowcount : 0
68 rowcount : 0
69 rowcount : 0
70 rowcount : 0
71 rowcount : 0
72 rowcount : 0
73 rowcount : 0
74 rowcount : 0
75 rowcount : 0
76 rowcount : 0
77 rowcount : 0
78 rowcount : 0
79 rowcount : 0
80 rowcount : 0
81 rowcount : 0
82 rowcount : 0
83 rowcount : 0
84 rowcount : 0
85 rowcount : 0
86 rowcount : 0
87 rowcount : 0
88 rowcount : 0
89 rowcount : 0
90 rowcount : 0
91 rowcount : 0
92 rowcount : 0
93 rowcount : 0
94 rowcount : 0
95 rowcount : 0
96 rowcount : 0
97 rowcount : 0
98 rowcount : 0
99 rowcount : 0
100 rowcount : 0
101 rowcount : 0
102 rowcount : 0
103 rowcount : 0
104 rowcount : 0
105 rowcount : 0
106 rowcount : 0
107 rowcount : 0
108 rowcount : 0
109 rowcount : 0
110 rowcount : 0
111 rowcount : 0
112 rowcount : 0
113 rowcount : 0
114 rowcount : 0
115 rowcount : 0
116 rowcount : 0
117 rowcount : 0
118 rowcount : 0
119 rowcount : 0
120 rowcount : 0
121 rowcount : 0
122 rowcount : 0
123 rowcount : 0
124 rowcount : 0
125 rowcount : 0
126 rowcount : 0
127 rowcount : 0
128 rowcount : 0
129 rowcount : 0
130 rowcount : 0
131 rowcount : 0
132 rowcount : 0
------------bank[14] rowcount ----------
0 rowcount : 0
1 rowcount : 0
2 rowcount : 0
3 rowcount : 0
4 rowcount : 0
5 rowcount : 0
6 rowcount : 0
7 rowcount : 0
8 rowcount : 0
9 rowcount : 0
10 rowcount : 0
11 rowcount : 0
12 rowcount : 0
13 rowcount : 0
14 rowcount : 0
15 rowcount : 0
16 rowcount : 0
17 rowcount : 0
18 rowcount : 0
19 rowcount : 0
20 rowcount : 0
21 rowcount : 0
22 rowcount : 0
23 rowcount : 0
24 rowcount : 0
25 rowcount : 0
26 rowcount : 0
27 rowcount : 0
28 rowcount : 0
29 rowcount : 0
30 rowcount : 0
31 rowcount : 0
32 rowcount : 0
33 rowcount : 0
34 rowcount : 0
35 rowcount : 0
36 rowcount : 0
37 rowcount : 0
38 rowcount : 0
39 rowcount : 0
40 rowcount : 0
41 rowcount : 0
42 rowcount : 0
43 rowcount : 0
44 rowcount : 0
45 rowcount : 0
46 rowcount : 0
47 rowcount : 0
48 rowcount : 0
49 rowcount : 0
50 rowcount : 0
51 rowcount : 0
52 rowcount : 0
53 rowcount : 0
54 rowcount : 0
55 rowcount : 0
56 rowcount : 0
57 rowcount : 0
58 rowcount : 0
59 rowcount : 0
60 rowcount : 0
61 rowcount : 0
62 rowcount : 0
63 rowcount : 0
64 rowcount : 0
65 rowcount : 0
66 rowcount : 0
67 rowcount : 0
68 rowcount : 0
69 rowcount : 0
70 rowcount : 0
71 rowcount : 0
72 rowcount : 0
73 rowcount : 0
74 rowcount : 0
75 rowcount : 0
76 rowcount : 0
77 rowcount : 0
78 rowcount : 0
79 rowcount : 0
80 rowcount : 0
81 rowcount : 0
82 rowcount : 0
83 rowcount : 0
84 rowcount : 0
85 rowcount : 0
86 rowcount : 0
87 rowcount : 0
88 rowcount : 0
89 rowcount : 0
90 rowcount : 0
91 rowcount : 0
92 rowcount : 0
93 rowcount : 0
94 rowcount : 0
95 rowcount : 0
96 rowcount : 0
97 rowcount : 0
98 rowcount : 0
99 rowcount : 0
100 rowcount : 0
101 rowcount : 0
102 rowcount : 0
103 rowcount : 0
104 rowcount : 0
105 rowcount : 0
106 rowcount : 0
107 rowcount : 0
108 rowcount : 0
109 rowcount : 0
110 rowcount : 0
111 rowcount : 0
112 rowcount : 0
113 rowcount : 0
114 rowcount : 0
115 rowcount : 0
116 rowcount : 0
117 rowcount : 0
118 rowcount : 0
119 rowcount : 0
120 rowcount : 0
121 rowcount : 0
122 rowcount : 0
123 rowcount : 0
124 rowcount : 0
125 rowcount : 0
126 rowcount : 0
127 rowcount : 0
128 rowcount : 0
129 rowcount : 0
130 rowcount : 0
131 rowcount : 0
132 rowcount : 0
------------bank[15] rowcount ----------
0 rowcount : 0
1 rowcount : 0
2 rowcount : 0
3 rowcount : 0
4 rowcount : 0
5 rowcount : 0
6 rowcount : 0
7 rowcount : 0
8 rowcount : 0
9 rowcount : 0
10 rowcount : 0
11 rowcount : 0
12 rowcount : 0
13 rowcount : 0
14 rowcount : 0
15 rowcount : 0
16 rowcount : 0
17 rowcount : 0
18 rowcount : 0
19 rowcount : 0
20 rowcount : 0
21 rowcount : 0
22 rowcount : 0
23 rowcount : 0
24 rowcount : 0
25 rowcount : 0
26 rowcount : 0
27 rowcount : 0
28 rowcount : 0
29 rowcount : 0
30 rowcount : 0
31 rowcount : 0
32 rowcount : 0
33 rowcount : 0
34 rowcount : 0
35 rowcount : 0
36 rowcount : 0
37 rowcount : 0
38 rowcount : 0
39 rowcount : 0
40 rowcount : 0
41 rowcount : 0
42 rowcount : 0
43 rowcount : 0
44 rowcount : 0
45 rowcount : 0
46 rowcount : 0
47 rowcount : 0
48 rowcount : 0
49 rowcount : 0
50 rowcount : 0
51 rowcount : 0
52 rowcount : 0
53 rowcount : 0
54 rowcount : 0
55 rowcount : 0
56 rowcount : 0
57 rowcount : 0
58 rowcount : 0
59 rowcount : 0
60 rowcount : 0
61 rowcount : 0
62 rowcount : 0
63 rowcount : 0
64 rowcount : 0
65 rowcount : 0
66 rowcount : 0
67 rowcount : 0
68 rowcount : 0
69 rowcount : 0
70 rowcount : 0
71 rowcount : 0
72 rowcount : 0
73 rowcount : 0
74 rowcount : 0
75 rowcount : 0
76 rowcount : 0
77 rowcount : 0
78 rowcount : 0
79 rowcount : 0
80 rowcount : 0
81 rowcount : 0
82 rowcount : 0
83 rowcount : 0
84 rowcount : 0
85 rowcount : 0
86 rowcount : 0
87 rowcount : 0
88 rowcount : 0
89 rowcount : 0
90 rowcount : 0
91 rowcount : 0
92 rowcount : 0
93 rowcount : 0
94 rowcount : 0
95 rowcount : 0
96 rowcount : 0
97 rowcount : 0
98 rowcount : 0
99 rowcount : 0
100 rowcount : 0
101 rowcount : 0
102 rowcount : 0
103 rowcount : 0
104 rowcount : 0
105 rowcount : 0
106 rowcount : 0
107 rowcount : 0
108 rowcount : 0
109 rowcount : 0
110 rowcount : 0
111 rowcount : 0
112 rowcount : 0
113 rowcount : 0
114 rowcount : 0
115 rowcount : 0
116 rowcount : 0
117 rowcount : 0
118 rowcount : 0
119 rowcount : 0
120 rowcount : 0
121 rowcount : 0
122 rowcount : 0
123 rowcount : 0
124 rowcount : 0
125 rowcount : 0
126 rowcount : 0
127 rowcount : 0
128 rowcount : 0
129 rowcount : 0
130 rowcount : 0
131 rowcount : 0
132 rowcount : 0

Row_Buffer_Locality = -nan
Row_Buffer_Locality_read = -nan
Row_Buffer_Locality_write = -nan
Bank_Level_Parallism = -nan
Bank_Level_Parallism_Col = -nan
Bank_Level_Parallism_Ready = -nan
write_to_read_ratio_blp_rw_average = -nan
GrpLevelPara = -nan 

BW Util details:
bwutil = 0.000000 
total_CMD = 2354 
util_bw = 0 
Wasted_Col = 0 
Wasted_Row = 0 
Idle = 2354 

BW Util Bottlenecks: 
RCDc_limit = 0 
RCDWRc_limit = 0 
WTRc_limit = 0 
RTWc_limit = 0 
CCDLc_limit = 0 
rwq = 0 
CCDLc_limit_alone = 0 
WTRc_limit_alone = 0 
RTWc_limit_alone = 0 

Commands details: 
total_CMD = 2354 
n_nop = 2354 
Read = 0 
Write = 0 
L2_Alloc = 0 
L2_WB = 0 
n_act = 0 
n_pre = 0 
n_ref = 0 
n_req = 0 
total_req = 0 
-----------------------------
issued_total_row : 0
issued_total_col : 0

Dual Bus Interface Util: 
issued_total_row = 0 
issued_total_col = 0 
Row_Bus_Util =  0.000000 
CoL_Bus_Util = 0.000000 
Either_Row_CoL_Bus_Util = 0.000000 
Issued_on_Two_Bus_Simul_Util = 0.000000 
issued_two_Eff = -nan 
queue_avg = 0.000000 


dram_util_bins: 0 0 0 0 0 0 0 0 0 0
dram_eff_bins: 0 0 0 0 0 0 0 0 0 0
mrqq: max=0 avg=0

========= L2 cache stats =========
L2_cache_bank[0]: Access = 432, Miss = 38, Miss_rate = 0.088, Pending_hits = 161, Reservation_fails = 0
L2_cache_bank[1]: Access = 96, Miss = 32, Miss_rate = 0.333, Pending_hits = 0, Reservation_fails = 0
L2_cache_bank[2]: Access = 96, Miss = 32, Miss_rate = 0.333, Pending_hits = 0, Reservation_fails = 0
L2_cache_bank[3]: Access = 96, Miss = 32, Miss_rate = 0.333, Pending_hits = 0, Reservation_fails = 0
L2_cache_bank[4]: Access = 96, Miss = 32, Miss_rate = 0.333, Pending_hits = 0, Reservation_fails = 0
L2_cache_bank[5]: Access = 96, Miss = 32, Miss_rate = 0.333, Pending_hits = 0, Reservation_fails = 0
L2_cache_bank[6]: Access = 96, Miss = 32, Miss_rate = 0.333, Pending_hits = 0, Reservation_fails = 0
L2_cache_bank[7]: Access = 72, Miss = 32, Miss_rate = 0.444, Pending_hits = 0, Reservation_fails = 0
L2_cache_bank[8]: Access = 96, Miss = 64, Miss_rate = 0.667, Pending_hits = 0, Reservation_fails = 0
L2_cache_bank[9]: Access = 96, Miss = 64, Miss_rate = 0.667, Pending_hits = 0, Reservation_fails = 0
L2_cache_bank[10]: Access = 96, Miss = 64, Miss_rate = 0.667, Pending_hits = 0, Reservation_fails = 0
L2_cache_bank[11]: Access = 96, Miss = 64, Miss_rate = 0.667, Pending_hits = 0, Reservation_fails = 0
L2_cache_bank[12]: Access = 96, Miss = 64, Miss_rate = 0.667, Pending_hits = 0, Reservation_fails = 0
L2_cache_bank[13]: Access = 96, Miss = 64, Miss_rate = 0.667, Pending_hits = 0, Reservation_fails = 0
L2_cache_bank[14]: Access = 96, Miss = 64, Miss_rate = 0.667, Pending_hits = 0, Reservation_fails = 0
L2_cache_bank[15]: Access = 72, Miss = 40, Miss_rate = 0.556, Pending_hits = 0, Reservation_fails = 0
L2_cache_bank[16]: Access = 64, Miss = 32, Miss_rate = 0.500, Pending_hits = 0, Reservation_fails = 0
L2_cache_bank[17]: Access = 64, Miss = 32, Miss_rate = 0.500, Pending_hits = 0, Reservation_fails = 0
L2_cache_bank[18]: Access = 64, Miss = 32, Miss_rate = 0.500, Pending_hits = 0, Reservation_fails = 0
L2_cache_bank[19]: Access = 64, Miss = 32, Miss_rate = 0.500, Pending_hits = 0, Reservation_fails = 0
L2_cache_bank[20]: Access = 64, Miss = 32, Miss_rate = 0.500, Pending_hits = 0, Reservation_fails = 0
L2_cache_bank[21]: Access = 64, Miss = 32, Miss_rate = 0.500, Pending_hits = 0, Reservation_fails = 0
L2_cache_bank[22]: Access = 64, Miss = 32, Miss_rate = 0.500, Pending_hits = 0, Reservation_fails = 0
L2_cache_bank[23]: Access = 64, Miss = 32, Miss_rate = 0.500, Pending_hits = 0, Reservation_fails = 0
L2_total_cache_accesses = 2336
L2_total_cache_misses = 1006
L2_total_cache_miss_rate = 0.4307
L2_total_cache_pending_hits = 161
L2_total_cache_reservation_fails = 0
L2_total_cache_breakdown:
	L2_cache_stats_breakdown[GLOBAL_ACC_R][HIT] = 1000
	L2_cache_stats_breakdown[GLOBAL_ACC_R][HIT_RESERVED] = 0
	L2_cache_stats_breakdown[GLOBAL_ACC_R][MISS] = 0
	L2_cache_stats_breakdown[GLOBAL_ACC_R][RESERVATION_FAIL] = 0
	L2_cache_stats_breakdown[GLOBAL_ACC_R][SECTOR_MISS] = 0
	L2_cache_stats_breakdown[LOCAL_ACC_R][HIT] = 0
	L2_cache_stats_breakdown[LOCAL_ACC_R][HIT_RESERVED] = 0
	L2_cache_stats_breakdown[LOCAL_ACC_R][MISS] = 0
	L2_cache_stats_breakdown[LOCAL_ACC_R][RESERVATION_FAIL] = 0
	L2_cache_stats_breakdown[LOCAL_ACC_R][SECTOR_MISS] = 0
	L2_cache_stats_breakdown[CONST_ACC_R][HIT] = 70
	L2_cache_stats_breakdown[CONST_ACC_R][HIT_RESERVED] = 40
	L2_cache_stats_breakdown[CONST_ACC_R][MISS] = 1
	L2_cache_stats_breakdown[CONST_ACC_R][RESERVATION_FAIL] = 0
	L2_cache_stats_breakdown[CONST_ACC_R][SECTOR_MISS] = 1
	L2_cache_stats_breakdown[TEXTURE_ACC_R][HIT] = 0
	L2_cache_stats_breakdown[TEXTURE_ACC_R][HIT_RESERVED] = 0
	L2_cache_stats_breakdown[TEXTURE_ACC_R][MISS] = 0
	L2_cache_stats_breakdown[TEXTURE_ACC_R][RESERVATION_FAIL] = 0
	L2_cache_stats_breakdown[TEXTURE_ACC_R][SECTOR_MISS] = 0
	L2_cache_stats_breakdown[GLOBAL_ACC_W][HIT] = 0
	L2_cache_stats_breakdown[GLOBAL_ACC_W][HIT_RESERVED] = 0
	L2_cache_stats_breakdown[GLOBAL_ACC_W][MISS] = 32
	L2_cache_stats_breakdown[GLOBAL_ACC_W][RESERVATION_FAIL] = 0
	L2_cache_stats_breakdown[GLOBAL_ACC_W][SECTOR_MISS] = 968
	L2_cache_stats_breakdown[LOCAL_ACC_W][HIT] = 0
	L2_cache_stats_breakdown[LOCAL_ACC_W][HIT_RESERVED] = 0
	L2_cache_stats_breakdown[LOCAL_ACC_W][MISS] = 0
	L2_cache_stats_breakdown[LOCAL_ACC_W][RESERVATION_FAIL] = 0
	L2_cache_stats_breakdown[LOCAL_ACC_W][SECTOR_MISS] = 0
	L2_cache_stats_breakdown[L1_WRBK_ACC][HIT] = 0
	L2_cache_stats_breakdown[L1_WRBK_ACC][HIT_RESERVED] = 0
	L2_cache_stats_breakdown[L1_WRBK_ACC][MISS] = 0
	L2_cache_stats_breakdown[L1_WRBK_ACC][RESERVATION_FAIL] = 0
	L2_cache_stats_breakdown[L1_WRBK_ACC][SECTOR_MISS] = 0
	L2_cache_stats_breakdown[L2_WRBK_ACC][HIT] = 0
	L2_cache_stats_breakdown[L2_WRBK_ACC][HIT_RESERVED] = 0
	L2_cache_stats_breakdown[L2_WRBK_ACC][MISS] = 0
	L2_cache_stats_breakdown[L2_WRBK_ACC][RESERVATION_FAIL] = 0
	L2_cache_stats_breakdown[L2_WRBK_ACC][SECTOR_MISS] = 0
	L2_cache_stats_breakdown[INST_ACC_R][HIT] = 99
	L2_cache_stats_breakdown[INST_ACC_R][HIT_RESERVED] = 121
	L2_cache_stats_breakdown[INST_ACC_R][MISS] = 1
	L2_cache_stats_breakdown[INST_ACC_R][RESERVATION_FAIL] = 0
	L2_cache_stats_breakdown[INST_ACC_R][SECTOR_MISS] = 3
	L2_cache_stats_breakdown[L1_WR_ALLOC_R][HIT] = 0
	L2_cache_stats_breakdown[L1_WR_ALLOC_R][HIT_RESERVED] = 0
	L2_cache_stats_breakdown[L1_WR_ALLOC_R][MISS] = 0
	L2_cache_stats_breakdown[L1_WR_ALLOC_R][RESERVATION_FAIL] = 0
	L2_cache_stats_breakdown[L1_WR_ALLOC_R][SECTOR_MISS] = 0
	L2_cache_stats_breakdown[L2_WR_ALLOC_R][HIT] = 0
	L2_cache_stats_breakdown[L2_WR_ALLOC_R][HIT_RESERVED] = 0
	L2_cache_stats_breakdown[L2_WR_ALLOC_R][MISS] = 0
	L2_cache_stats_breakdown[L2_WR_ALLOC_R][RESERVATION_FAIL] = 0
	L2_cache_stats_breakdown[L2_WR_ALLOC_R][SECTOR_MISS] = 0
	L2_cache_stats_breakdown[GLOBAL_ACC_R][TOTAL_ACCESS] = 1000
	L2_cache_stats_breakdown[CONST_ACC_R][TOTAL_ACCESS] = 112
	L2_cache_stats_breakdown[GLOBAL_ACC_W][TOTAL_ACCESS] = 1000
	L2_cache_stats_breakdown[INST_ACC_R][TOTAL_ACCESS] = 224
L2_total_cache_reservation_fail_breakdown:
L2_cache_data_port_util = 0.036
L2_cache_fill_port_util = 0.000

icnt_total_pkts_mem_to_simt=2336
icnt_total_pkts_simt_to_mem=2112
LD_mem_lat_dist  0 0 0 0 0 0 0 0 0 0 0 0 0 0 0 0 0 0 0 0 0 0 0 0 0 0 0
ST_mem_lat_dist  0 0 0 0 0 0 0 0 0 0 0 0 0 0 0 0 0 0 0 0 0 0 0 0 0 0 0
----------------------------Interconnect-DETAILS--------------------------------
Class 0:
Packet latency average = 6.10229
	minimum = 5
	maximum = 59
Network latency average = 6.04969
	minimum = 5
	maximum = 59
Slowest packet = 55
Flit latency average = 6.04969
	minimum = 5
	maximum = 59
Slowest flit = 55
Fragmentation average = 0
	minimum = 0
	maximum = 0
Injected packet rate average = 0.0640738
	minimum = 0.0479401 (at node 44)
	maximum = 0.323596 (at node 28)
Accepted packet rate average = 0.0640738
	minimum = 0.0479401 (at node 44)
	maximum = 0.155805 (at node 28)
Injected flit rate average = 0.0640738
	minimum = 0.0479401 (at node 44)
	maximum = 0.323596 (at node 28)
Accepted flit rate average= 0.0640738
	minimum = 0.0479401 (at node 44)
	maximum = 0.155805 (at node 28)
Injected packet length average = 1
Accepted packet length average = 1
Total in-flight flits = 0 (0 measured)
====== Overall Traffic Statistics ======
====== Traffic class 0 ======
Packet latency average = 6.10229 (1 samples)
	minimum = 5 (1 samples)
	maximum = 59 (1 samples)
Network latency average = 6.04969 (1 samples)
	minimum = 5 (1 samples)
	maximum = 59 (1 samples)
Flit latency average = 6.04969 (1 samples)
	minimum = 5 (1 samples)
	maximum = 59 (1 samples)
Fragmentation average = 0 (1 samples)
	minimum = 0 (1 samples)
	maximum = 0 (1 samples)
Injected packet rate average = 0.0640738 (1 samples)
	minimum = 0.0479401 (1 samples)
	maximum = 0.323596 (1 samples)
Accepted packet rate average = 0.0640738 (1 samples)
	minimum = 0.0479401 (1 samples)
	maximum = 0.155805 (1 samples)
Injected flit rate average = 0.0640738 (1 samples)
	minimum = 0.0479401 (1 samples)
	maximum = 0.323596 (1 samples)
Accepted flit rate average = 0.0640738 (1 samples)
	minimum = 0.0479401 (1 samples)
	maximum = 0.155805 (1 samples)
Injected packet size average = 1 (1 samples)
Accepted packet size average = 1 (1 samples)
Hops average = 1 (1 samples)
----------------------------END-of-Interconnect-DETAILS-------------------------


gpgpu_simulation_time = 0 days, 0 hrs, 0 min, 2 sec (2 sec)
gpgpu_simulation_rate = 6500 (inst/sec)
gpgpu_simulation_rate = 667 (cycle/sec)
count : 4000 dst_start_addr : 0xc0001000
,0
2
4
6
8
10
12
14
16
18
20
22
24
26
28
30
32
34
36
38
40
42
44
46
48
50
52
54
56
58
60
62
64
66
68
70
72
74
76
78
80
82
84
86
88
90
92
94
96
98
100
102
104
106
108
110
112
114
116
118
120
122
124
126
128
130
132
134
136
138
140
142
144
146
148
150
152
154
156
158
160
162
164
166
168
170
172
174
176
178
180
182
184
186
188
190
192
194
196
198
200
202
204
206
208
210
212
214
216
218
220
222
224
226
228
230
232
234
236
238
240
242
244
246
248
250
252
254
256
258
260
262
264
266
268
270
272
274
276
278
280
282
284
286
288
290
292
294
296
298
300
302
304
306
308
310
312
314
316
318
320
322
324
326
328
330
332
334
336
338
340
342
344
346
348
350
352
354
356
358
360
362
364
366
368
370
372
374
376
378
380
382
384
386
388
390
392
394
396
398
400
402
404
406
408
410
412
414
416
418
420
422
424
426
428
430
432
434
436
438
440
442
444
446
448
450
452
454
456
458
460
462
464
466
468
470
472
474
476
478
480
482
484
486
488
490
492
494
496
498
500
502
504
506
508
510
512
514
516
518
520
522
524
526
528
530
532
534
536
538
540
542
544
546
548
550
552
554
556
558
560
562
564
566
568
570
572
574
576
578
580
582
584
586
588
590
592
594
596
598
600
602
604
606
608
610
612
614
616
618
620
622
624
626
628
630
632
634
636
638
640
642
644
646
648
650
652
654
656
658
660
662
664
666
668
670
672
674
676
678
680
682
684
686
688
690
692
694
696
698
700
702
704
706
708
710
712
714
716
718
720
722
724
726
728
730
732
734
736
738
740
742
744
746
748
750
752
754
756
758
760
762
764
766
768
770
772
774
776
778
780
782
784
786
788
790
792
794
796
798
800
802
804
806
808
810
812
814
816
818
820
822
824
826
828
830
832
834
836
838
840
842
844
846
848
850
852
854
856
858
860
862
864
866
868
870
872
874
876
878
880
882
884
886
888
890
892
894
896
898
900
902
904
906
908
910
912
914
916
918
920
922
924
926
928
930
932
934
936
938
940
942
944
946
948
950
952
954
956
958
960
962
964
966
968
970
972
974
976
978
980
982
984
986
988
990
992
994
996
998
1000
1002
1004
1006
1008
1010
1012
1014
1016
1018
1020
1022
1024
1026
1028
1030
1032
1034
1036
1038
1040
1042
1044
1046
1048
1050
1052
1054
1056
1058
1060
1062
1064
1066
1068
1070
1072
1074
1076
1078
1080
1082
1084
1086
1088
1090
1092
1094
1096
1098
1100
1102
1104
1106
1108
1110
1112
1114
1116
1118
1120
1122
1124
1126
1128
1130
1132
1134
1136
1138
1140
1142
1144
1146
1148
1150
1152
1154
1156
1158
1160
1162
1164
1166
1168
1170
1172
1174
1176
1178
1180
1182
1184
1186
1188
1190
1192
1194
1196
1198
1200
1202
1204
1206
1208
1210
1212
1214
1216
1218
1220
1222
1224
1226
1228
1230
1232
1234
1236
1238
1240
1242
1244
1246
1248
1250
1252
1254
1256
1258
1260
1262
1264
1266
1268
1270
1272
1274
1276
1278
1280
1282
1284
1286
1288
1290
1292
1294
1296
1298
1300
1302
1304
1306
1308
1310
1312
1314
1316
1318
1320
1322
1324
1326
1328
1330
1332
1334
1336
1338
1340
1342
1344
1346
1348
1350
1352
1354
1356
1358
1360
1362
1364
1366
1368
1370
1372
1374
1376
1378
1380
1382
1384
1386
1388
1390
1392
1394
1396
1398
1400
1402
1404
1406
1408
1410
1412
1414
1416
1418
1420
1422
1424
1426
1428
1430
1432
1434
1436
1438
1440
1442
1444
1446
1448
1450
1452
1454
1456
1458
1460
1462
1464
1466
1468
1470
1472
1474
1476
1478
1480
1482
1484
1486
1488
1490
1492
1494
1496
1498
1500
1502
1504
1506
1508
1510
1512
1514
1516
1518
1520
1522
1524
1526
1528
1530
1532
1534
1536
1538
1540
1542
1544
1546
1548
1550
1552
1554
1556
1558
1560
1562
1564
1566
1568
1570
1572
1574
1576
1578
1580
1582
1584
1586
1588
1590
1592
1594
1596
1598
1600
1602
1604
1606
1608
1610
1612
1614
1616
1618
1620
1622
1624
1626
1628
1630
1632
1634
1636
1638
1640
1642
1644
1646
1648
1650
1652
1654
1656
1658
1660
1662
1664
1666
1668
1670
1672
1674
1676
1678
1680
1682
1684
1686
1688
1690
1692
1694
1696
1698
1700
1702
1704
1706
1708
1710
1712
1714
1716
1718
1720
1722
1724
1726
1728
1730
1732
1734
1736
1738
1740
1742
1744
1746
1748
1750
1752
1754
1756
1758
1760
1762
1764
1766
1768
1770
1772
1774
1776
1778
1780
1782
1784
1786
1788
1790
1792
1794
1796
1798
1800
1802
1804
1806
1808
1810
1812
1814
1816
1818
1820
1822
1824
1826
1828
1830
1832
1834
1836
1838
1840
1842
1844
1846
1848
1850
1852
1854
1856
1858
1860
1862
1864
1866
1868
1870
1872
1874
1876
1878
1880
1882
1884
1886
1888
1890
1892
1894
1896
1898
1900
1902
1904
1906
1908
1910
1912
1914
1916
1918
1920
1922
1924
1926
1928
1930
1932
1934
1936
1938
1940
1942
1944
1946
1948
1950
1952
1954
1956
1958
1960
1962
1964
1966
1968
1970
1972
1974
1976
1978
1980
1982
1984
1986
1988
1990
1992
1994
1996
1998
GPGPU-Sim: *** exit detected ***
